12
%%%{'L':{'index':1,'type':'FG'},'R':{'index':3,'type':'FG'},'S1':{'index':0,'type':'AL'},'S2':{'index':2,'type':'AL'}}%%%
C          0.51747        4.61341        0.00000
C         -0.55036        2.33464        0.00000
C          0.63766       -2.55926        0.00000
C          1.72842       -0.27549        0.00000
C          1.66716        2.35313        0.00000
C          1.28700        1.03441        0.00000
C         -0.11342        1.02164        0.00000
C         -0.48882       -0.29916        0.00000
N          0.54560        3.15084        0.00000
N          0.63336       -1.09561        0.00000
O          2.55780        3.78780        0.00000
O         -1.37844       -1.57633        0.00000
