85
Properties=species:S:1:pos:R:3 "%%%'L':{'index':0,'type':'FG',R:'index':1,'type':'FG'}%%%"=T pbc="F F F"
C       -0.57156000       2.27866000       0.00000000
C        1.75306000      -0.31123000       0.00000000
C        1.65940000       2.30251000      -0.00000000
C        1.28845000       0.98865000       0.00000000
C       -0.10622000       0.97951000       0.00000000
C       -0.47792000      -0.33381000      -0.00000000
N        0.53085000       3.08576000      -0.00000000
N        0.65003000      -1.11769000      -0.00000000
O        2.68272000       2.98868000      -0.00000000
O       -1.52533000      -0.99533000      -0.00000000
C        0.50321000       4.54391000      -0.00000000
H       -0.54438000       4.91456000      -0.00000000
H        1.01847000       4.92769000      -0.90547000
H        1.01847000       4.92769000       0.90547000
C        0.67502000      -2.57587000      -0.00000000
H        1.72166000      -2.94887000      -0.00000000
H        0.15853000      -2.95844000      -0.90536000
H        0.15853000      -2.95845000       0.90536000
C       -4.81812000       2.37109000       0.00000000
C       -2.02156000       2.27866000       0.00000000
C       -4.07896000       3.55893000       0.00000000
C       -4.15900000       1.13703000       0.00000000
C       -2.68068000       3.51271000       0.00000000
H       -4.58887000       4.51362000       0.00000000
H       -2.10885000       4.43166000       0.00000000
C       -2.76072000       1.09082000       0.00000000
H       -4.73084000       0.21809000       0.00000000
H       -2.25081000       0.13613000       0.00000000
C        3.20306000      -0.31123000       0.00000000
C        5.99962000      -0.40366000       0.00000000
C        3.94222000       0.87661000       0.00000000
C        3.86218000      -1.54529000       0.00000000
C        5.34050000       0.83039000       0.00000000
H        3.43231000       1.83130000       0.00000000
H        5.91233000       1.74934000       0.00000000
C        5.26046000      -1.59150000       0.00000000
H        3.29034000      -2.46423000       0.00000000
H        5.77037000      -2.54619000       0.00000000
C        7.44962000      -0.40366000       0.00000000
C       13.70033000      -0.05253000      -0.10614000
C       13.07971000      -1.31481000      -0.13089000
C        8.20758000      -1.58788000      -0.04814000
S        8.49987000       0.95611000       0.01957000
C        9.87750000       0.01491000      -0.03311000
C        9.56648000      -1.30202000      -0.06519000
H        7.78689000      -2.58401000      -0.06896000
C       11.24199000       0.09016000      -0.05632000
C       11.69628000      -1.18510000      -0.10144000
N       10.67596000      -2.08060000      -0.10821000
S       12.50574000       1.18048000      -0.04847000
H       13.61355000      -2.25430000      -0.16783000
C       10.73857000      -3.53724000      -0.15126000
H       11.79168000      -3.88569000      -0.18086000
H       10.21420000      -3.90553000      -1.05773000
H       10.24783000      -3.95755000       0.75141000
C       15.15033000      -0.05253000      -0.10614000
C       23.71595000      -1.18518000      -0.12573688
C       15.95886504       1.08032635      -0.10725251
S       16.12871716      -1.42982213      -0.10912055
C       17.32376557       0.77258421      -0.11045089
H       15.56779730       2.08946283      -0.10578843
C       17.58880857      -0.59018480      -0.11184687
C       18.89820643      -1.08956755      -0.11503659
C       18.36776725       1.69955825      -0.11220604
C       19.96807357      -0.14814245      -0.11684029
C       19.69248804       1.23759289      -0.11540736
H       18.16277206       2.76269507      -0.11112091
H       20.49611374       1.96277475      -0.11675148
C       19.17378936      -2.47531254      -0.11646952
C       21.27748108      -0.64752780      -0.12003004
C       21.54251443      -2.01029421      -0.12142599
C       20.49851275      -2.93726825      -0.11967084
H       18.37016366      -3.20049441      -0.11512541
H       20.70350794      -4.00040507      -0.12075597
C       22.90742462      -2.31803895      -0.12462439
S       22.73756284       0.19211213      -0.12275634
H       23.29848530      -3.32716318      -0.12608846
C       -6.26812000       2.37109000       0.00000000
H       -6.56812000       3.37109000       0.01000000
H       -6.56812000       1.77109000       0.80000000
H       -6.56812000       1.97109000      -0.90000000
C       25.16595000      -1.18518000      -0.12573688
H       25.46595000      -2.18518000      -0.13573688
H       25.46595000      -0.58518000      -0.92573688
H       25.46595000      -0.78518000       0.77426312
