72
Properties=species:S:1:pos:R:3 "%%%'L':{'index':0,'type':'FG',R:'index':1,'type':'FG'}%%%"=T pbc="F F F"
C       -0.57156000       2.27866000       0.00000000
C        1.75306000      -0.31123000       0.00000000
C        1.65940000       2.30251000      -0.00000000
C        1.28845000       0.98865000       0.00000000
C       -0.10622000       0.97951000       0.00000000
C       -0.47792000      -0.33381000      -0.00000000
N        0.53085000       3.08576000      -0.00000000
N        0.65003000      -1.11769000      -0.00000000
O        2.68272000       2.98868000      -0.00000000
O       -1.52533000      -0.99533000      -0.00000000
C        0.50321000       4.54391000      -0.00000000
H       -0.54438000       4.91456000      -0.00000000
H        1.01847000       4.92769000      -0.90547000
H        1.01847000       4.92769000       0.90547000
C        0.67502000      -2.57587000      -0.00000000
H        1.72166000      -2.94887000      -0.00000000
H        0.15853000      -2.95844000      -0.90536000
H        0.15853000      -2.95845000       0.90536000
C       -4.81812000       2.37109000       0.00000000
C       -2.02156000       2.27866000       0.00000000
C       -4.07896000       3.55893000       0.00000000
C       -4.15900000       1.13703000       0.00000000
C       -2.68068000       3.51271000       0.00000000
H       -4.58887000       4.51362000       0.00000000
H       -2.10885000       4.43166000       0.00000000
C       -2.76072000       1.09082000       0.00000000
H       -4.73084000       0.21809000       0.00000000
H       -2.25081000       0.13613000       0.00000000
C        3.20306000      -0.31123000       0.00000000
C        5.99962000      -0.40366000       0.00000000
C        3.94222000       0.87661000       0.00000000
C        3.86218000      -1.54529000       0.00000000
C        5.34050000       0.83039000       0.00000000
H        3.43231000       1.83130000       0.00000000
H        5.91233000       1.74934000       0.00000000
C        5.26046000      -1.59150000       0.00000000
H        3.29034000      -2.46423000       0.00000000
H        5.77037000      -2.54619000       0.00000000
C        7.44962000      -0.40366000       0.00000000
C        9.94136000      -0.37554000       0.49157000
C        8.02247000      -1.65786000       0.12367000
C        9.39501000      -1.64243000       0.37782000
S        8.68378000       0.72436000       0.24141000
O       10.07431000      -2.80915000       0.49254000
O        7.36785000      -2.83947000       0.01818000
C        7.98790000      -4.00354000       0.46344000
C        9.47891000      -3.98946000       0.05651000
H       10.02260000      -4.86850000       0.46126000
H        9.53169000      -4.02289000      -1.05384000
H        7.46284000      -4.89697000       0.06566000
H        7.93574000      -4.02933000       1.57402000
C       11.39136000      -0.37554000       0.49157000
C       13.88310000      -0.34742000       0.98352647
C       11.93661422       0.89131668       0.59366846
C       13.30284358       0.90650980       0.88003232
S       12.65269833      -1.47530573       0.73815703
O       13.94534676       2.08768228       1.03092836
O       11.26149975       2.05819120       0.44148027
C       11.97471556       3.24270357       0.26414021
C       13.19959106       3.24726791       1.20696846
H       13.83396539       4.14459573       1.03834744
H       12.82617630       3.25788417       2.25399606
H       11.31573011       4.11763227       0.43178360
H       12.34730468       3.29130008      -0.78291832
C       -6.26812000       2.37109000       0.00000000
H       -6.56812000       3.37109000       0.01000000
H       -6.56812000       1.77109000       0.80000000
H       -6.56812000       1.97109000      -0.90000000
C       15.33310000      -0.34742000       0.98352647
H       15.63310000      -1.34742000       0.97352647
H       15.63310000       0.25258000       0.18352647
H       15.63310000       0.05258000       1.88352647
