113
Properties=species:S:1:pos:R:3 "%%%'L':{'index':0,'type':'FG',R:'index':1,'type':'FG'}%%%"=T pbc="F F F"
C       -0.57156000       2.27866000       0.00000000
C        1.75306000      -0.31123000       0.00000000
C        1.65940000       2.30251000      -0.00000000
C        1.28845000       0.98865000       0.00000000
C       -0.10622000       0.97951000       0.00000000
C       -0.47792000      -0.33381000      -0.00000000
N        0.53085000       3.08576000      -0.00000000
N        0.65003000      -1.11769000      -0.00000000
O        2.68272000       2.98868000      -0.00000000
O       -1.52533000      -0.99533000      -0.00000000
C        0.50321000       4.54391000      -0.00000000
H       -0.54438000       4.91456000      -0.00000000
H        1.01847000       4.92769000      -0.90547000
H        1.01847000       4.92769000       0.90547000
C        0.67502000      -2.57587000      -0.00000000
H        1.72166000      -2.94887000      -0.00000000
H        0.15853000      -2.95844000      -0.90536000
H        0.15853000      -2.95845000       0.90536000
C       -4.81812000       2.37109000       0.00000000
C       -2.02156000       2.27866000       0.00000000
C       -4.07896000       3.55893000       0.00000000
C       -4.15900000       1.13703000       0.00000000
C       -2.68068000       3.51271000       0.00000000
H       -4.58887000       4.51362000       0.00000000
H       -2.10885000       4.43166000       0.00000000
C       -2.76072000       1.09082000       0.00000000
H       -4.73084000       0.21809000       0.00000000
H       -2.25081000       0.13613000       0.00000000
C        3.20306000      -0.31123000       0.00000000
C        5.99962000      -0.40366000       0.00000000
C        3.94222000       0.87661000       0.00000000
C        3.86218000      -1.54529000       0.00000000
C        5.34050000       0.83039000       0.00000000
H        3.43231000       1.83130000       0.00000000
H        5.91233000       1.74934000       0.00000000
C        5.26046000      -1.59150000       0.00000000
H        3.29034000      -2.46423000       0.00000000
H        5.77037000      -2.54619000       0.00000000
C        7.44962000      -0.40366000       0.00000000
C       14.74458000      -0.08725000      -1.68604000
C        7.46523000       0.67974000      -0.85552000
C        8.66173000       1.09886000      -1.42417000
H        6.54566000       1.21073000      -1.06401000
C        8.62710000      -1.07804000       0.29002000
C        9.88683000       0.42626000      -1.16968000
H        8.59074000       1.97234000      -2.04354000
C        9.86948000      -0.69637000      -0.28548000
H        8.52417000      -1.87934000       0.99788000
C       11.11446000       0.88389000      -1.73257000
C       11.07981000      -1.37463000       0.04692000
C       12.32476000       0.20554000      -1.40030000
C       12.30742000      -0.91711000      -0.51615000
C       13.56711000       0.58721000      -1.97587000
C       13.53252000      -1.58979000      -0.26186000
H       13.66999000       1.38858000      -2.68369000
C       14.72898000      -1.17072000      -0.83063000
H       13.60355000      -2.46335000       0.35740000
H       15.64854000      -1.70181000      -0.62230000
C       11.13812000       2.06355000      -2.66563000
S       10.16397000       2.27583000      -4.03433000
C       10.80813000       3.75779000      -4.49251000
C       11.79702000       4.11617000      -3.58938000
C       11.98364000       3.17269000      -2.57280000
H       12.36805000       5.03268000      -3.66020000
H       12.71293000       3.30623000      -1.78419000
C       11.05641000      -2.55393000       0.98049000
S       12.03111000      -2.76544000       2.34882000
C       11.38817000      -4.24647000       2.80871000
C       10.39816000      -4.60597000       1.90600000
C       10.21093000      -3.66312000       0.88888000
H        9.48122000      -3.79723000       0.10076000
H        9.82642000      -5.52206000       1.97639000
C       10.38397000       4.55739000      -5.67823000
H        9.57288000       4.03404000      -6.22648000
H       11.24792000       4.69882000      -6.36052000
H       10.01301000       5.54912000      -5.34535000
C       11.82322000      -5.03497000       3.99827000
H       11.24035000      -5.97674000       4.07882000
H       11.66647000      -4.43439000       4.91820000
H       12.90030000      -5.28482000       3.90314000
C       16.19458000      -0.08725000      -1.68604000
C       18.69535000      -0.06161000      -1.81597000
C       16.75686000      -1.35529000      -1.70154000
C       18.16398000      -1.34676000      -1.77458000
H       16.15164000      -2.25034000      -1.66052000
S       17.43230000       1.04537000      -1.76241000
C       19.05701000      -2.56398000      -1.80778000
C       18.30250000      -3.90046000      -1.75427000
H       19.75044000      -2.50822000      -0.94040000
H       19.65694000      -2.52762000      -2.74322000
C       19.27707000      -5.08387000      -1.79215000
H       17.61470000      -3.96902000      -2.62590000
H       17.70867000      -3.94956000      -0.81487000
C       18.52437000      -6.41865000      -1.73875000
H       19.96854000      -5.01785000      -0.92314000
H       19.87477000      -5.03723000      -2.72929000
C       19.49928000      -7.60111000      -1.77674000
H       17.83295000      -6.48521000      -2.60778000
H       17.92677000      -6.46587000      -0.80155000
C       18.75406000      -8.93162000      -1.72378000
H       20.19139000      -7.54299000      -0.90841000
H       20.09762000      -7.56231000      -2.71316000
H       18.16394000      -9.00662000      -0.78557000
H       19.48353000      -9.76828000      -1.75273000
H       18.06997000      -9.02597000      -2.59396000
C       -6.26812000       2.37109000       0.00000000
H       -6.56812000       3.37109000       0.01000000
H       -6.56812000       1.77109000       0.80000000
H       -6.56812000       1.97109000      -0.90000000
C       20.14535000      -0.06161000      -1.81597000
H       20.44535000      -1.06161000      -1.82597000
H       20.44535000       0.53839000      -2.61597000
H       20.44535000       0.33839000      -0.91597000
