101
Properties=species:S:1:pos:R:3 "%%%'L':{'index':0,'type':'FG',R:'index':1,'type':'FG'}%%%"=T pbc="F F F"
C       -0.57156000       2.27866000       0.00000000
C        1.75306000      -0.31123000       0.00000000
C        1.65940000       2.30251000      -0.00000000
C        1.28845000       0.98865000       0.00000000
C       -0.10622000       0.97951000       0.00000000
C       -0.47792000      -0.33381000      -0.00000000
N        0.53085000       3.08576000      -0.00000000
N        0.65003000      -1.11769000      -0.00000000
O        2.68272000       2.98868000      -0.00000000
O       -1.52533000      -0.99533000      -0.00000000
C        0.50321000       4.54391000      -0.00000000
H       -0.54438000       4.91456000      -0.00000000
H        1.01847000       4.92769000      -0.90547000
H        1.01847000       4.92769000       0.90547000
C        0.67502000      -2.57587000      -0.00000000
H        1.72166000      -2.94887000      -0.00000000
H        0.15853000      -2.95844000      -0.90536000
H        0.15853000      -2.95845000       0.90536000
C       -4.81812000       2.37109000       0.00000000
C       -2.02156000       2.27866000       0.00000000
C       -4.07896000       3.55893000       0.00000000
C       -4.15900000       1.13703000       0.00000000
C       -2.68068000       3.51271000       0.00000000
H       -4.58887000       4.51362000       0.00000000
H       -2.10885000       4.43166000       0.00000000
C       -2.76072000       1.09082000       0.00000000
H       -4.73084000       0.21809000       0.00000000
H       -2.25081000       0.13613000       0.00000000
C        3.20306000      -0.31123000       0.00000000
C        5.99962000      -0.40366000       0.00000000
C        3.94222000       0.87661000       0.00000000
C        3.86218000      -1.54529000       0.00000000
C        5.34050000       0.83039000       0.00000000
H        3.43231000       1.83130000       0.00000000
H        5.91233000       1.74934000       0.00000000
C        5.26046000      -1.59150000       0.00000000
H        3.29034000      -2.46423000       0.00000000
H        5.77037000      -2.54619000       0.00000000
C        7.44962000      -0.40366000       0.00000000
C        9.94136000      -0.37554000       0.49157000
C        8.02247000      -1.65786000       0.12367000
C        9.39501000      -1.64243000       0.37782000
S        8.68378000       0.72436000       0.24141000
O       10.07431000      -2.80915000       0.49254000
O        7.36785000      -2.83947000       0.01818000
C        7.98790000      -4.00354000       0.46344000
C        9.47891000      -3.98946000       0.05651000
H       10.02260000      -4.86850000       0.46126000
H        9.53169000      -4.02289000      -1.05384000
H        7.46284000      -4.89697000       0.06566000
H        7.93574000      -4.02933000       1.57402000
C       11.39136000      -0.37554000       0.49157000
C       18.68632000      -0.05913000      -1.19447000
C       11.40697000       0.70786000      -0.36395000
C       12.60347000       1.12698000      -0.93260000
H       10.48740000       1.23885000      -0.57244000
C       12.56884000      -1.04992000       0.78159000
C       13.82857000       0.45438000      -0.67811000
H       12.53248000       2.00046000      -1.55197000
C       13.81122000      -0.66825000       0.20609000
H       12.46591000      -1.85122000       1.48945000
C       15.05620000       0.91201000      -1.24100000
C       15.02155000      -1.34651000       0.53849000
C       16.26650000       0.23366000      -0.90873000
C       16.24916000      -0.88899000      -0.02458000
C       17.50885000       0.61533000      -1.48430000
C       17.47426000      -1.56167000       0.22971000
H       17.61173000       1.41670000      -2.19212000
C       18.67072000      -1.14260000      -0.33906000
H       17.54529000      -2.43523000       0.84897000
H       19.59028000      -1.67369000      -0.13073000
C       15.07986000       2.09167000      -2.17406000
S       14.10571000       2.30395000      -3.54276000
C       14.74987000       3.78591000      -4.00094000
C       15.73876000       4.14429000      -3.09781000
C       15.92538000       3.20081000      -2.08123000
H       16.30979000       5.06080000      -3.16863000
H       16.65467000       3.33435000      -1.29262000
C       14.99815000      -2.52581000       1.47206000
S       15.97285000      -2.73732000       2.84039000
C       15.32991000      -4.21835000       3.30028000
C       14.33990000      -4.57785000       2.39757000
C       14.15267000      -3.63500000       1.38045000
H       13.42296000      -3.76911000       0.59233000
H       13.76816000      -5.49394000       2.46796000
C       14.32571000       4.58551000      -5.18666000
H       13.51462000       4.06216000      -5.73491000
H       15.18966000       4.72694000      -5.86895000
H       13.95475000       5.57724000      -4.85378000
C       15.76496000      -5.00685000       4.48984000
H       15.18209000      -5.94862000       4.57039000
H       15.60821000      -4.40627000       5.40977000
H       16.84204000      -5.25670000       4.39471000
C       -6.26812000       2.37109000       0.00000000
H       -6.56812000       3.37109000       0.01000000
H       -6.56812000       1.77109000       0.80000000
H       -6.56812000       1.97109000      -0.90000000
C       20.13632000      -0.05913000      -1.19447000
H       20.43632000      -1.05913000      -1.20447000
H       20.43632000       0.54087000      -1.99447000
H       20.43632000       0.34087000      -0.29447000
