88
Properties=species:S:1:pos:R:3 "%%%'L':{'index':0,'type':'FG',R:'index':1,'type':'FG'}%%%"=T pbc="F F F"
C       -0.57156000       2.27866000       0.00000000
C        1.75306000      -0.31123000       0.00000000
C        1.65940000       2.30251000      -0.00000000
C        1.28845000       0.98865000       0.00000000
C       -0.10622000       0.97951000       0.00000000
C       -0.47792000      -0.33381000      -0.00000000
N        0.53085000       3.08576000      -0.00000000
N        0.65003000      -1.11769000      -0.00000000
O        2.68272000       2.98868000      -0.00000000
O       -1.52533000      -0.99533000      -0.00000000
C        0.50321000       4.54391000      -0.00000000
H       -0.54438000       4.91456000      -0.00000000
H        1.01847000       4.92769000      -0.90547000
H        1.01847000       4.92769000       0.90547000
C        0.67502000      -2.57587000      -0.00000000
H        1.72166000      -2.94887000      -0.00000000
H        0.15853000      -2.95844000      -0.90536000
H        0.15853000      -2.95845000       0.90536000
C       -4.81812000       2.37109000       0.00000000
C       -2.02156000       2.27866000       0.00000000
C       -4.07896000       3.55893000       0.00000000
C       -4.15900000       1.13703000       0.00000000
C       -2.68068000       3.51271000       0.00000000
H       -4.58887000       4.51362000       0.00000000
H       -2.10885000       4.43166000       0.00000000
C       -2.76072000       1.09082000       0.00000000
H       -4.73084000       0.21809000       0.00000000
H       -2.25081000       0.13613000       0.00000000
C        3.20306000      -0.31123000       0.00000000
C        5.99962000      -0.40366000       0.00000000
C        3.94222000       0.87661000       0.00000000
C        3.86218000      -1.54529000       0.00000000
C        5.34050000       0.83039000       0.00000000
H        3.43231000       1.83130000       0.00000000
H        5.91233000       1.74934000       0.00000000
C        5.26046000      -1.59150000       0.00000000
H        3.29034000      -2.46423000       0.00000000
H        5.77037000      -2.54619000       0.00000000
C        7.44962000      -0.40366000       0.00000000
C       13.70033000      -0.05253000      -0.10614000
C       13.07971000      -1.31481000      -0.13089000
C        8.20758000      -1.58788000      -0.04814000
S        8.49987000       0.95611000       0.01957000
C        9.87750000       0.01491000      -0.03311000
C        9.56648000      -1.30202000      -0.06519000
H        7.78689000      -2.58401000      -0.06896000
C       11.24199000       0.09016000      -0.05632000
C       11.69628000      -1.18510000      -0.10144000
N       10.67596000      -2.08060000      -0.10821000
S       12.50574000       1.18048000      -0.04847000
H       13.61355000      -2.25430000      -0.16783000
C       10.73857000      -3.53724000      -0.15126000
H       11.79168000      -3.88569000      -0.18086000
H       10.21420000      -3.90553000      -1.05773000
H       10.24783000      -3.95755000       0.75141000
C       15.15033000      -0.05253000      -0.10614000
C       17.65110000      -0.02689000      -0.23559993
C       15.68629482       1.22680333      -0.14868624
C       17.09329249       1.24712627      -0.22159709
H       15.06271182       2.10927787      -0.12673797
S       16.41118692      -1.15956177      -0.15839373
C       17.96098765       2.48243058      -0.28076034
C       17.17902714       3.80319208      -0.25572191
H       18.56160167       2.45569231      -1.21507238
H       18.65536413       2.44358452       0.58744205
C       18.12895268       5.00636310      -0.31867045
H       16.58420262       3.84277638       0.68223626
H       16.49005657       3.85496859      -1.12849133
C       17.34883669       6.32546206      -0.29371012
H       18.72764898       4.96935336      -1.25440234
H       18.82148897       4.95716533       0.55145157
C       18.29913031       7.52768889      -0.35658458
H       16.75018164       6.36301234       0.64203657
H       16.65638229       6.37524275      -1.16390206
C       17.52658159       8.84267191      -0.33196104
H       18.89837923       7.49857883      -1.29170519
H       18.99207508       7.48635372       0.51275646
H       16.84091767       8.92039878      -1.20392673
H       18.23862705       9.69413114      -0.37849266
H       16.93479185       8.90813982       0.60417546
C       -6.26812000       2.37109000       0.00000000
H       -6.56812000       3.37109000       0.01000000
H       -6.56812000       1.77109000       0.80000000
H       -6.56812000       1.97109000      -0.90000000
C       19.10110000      -0.02689000      -0.23559993
H       19.40110000      -1.02689000      -0.24559993
H       19.40110000       0.57311000      -1.03559993
H       19.40110000       0.37311000       0.66440007
