100
Properties=species:S:1:pos:R:3 "%%%'L':{'index':0,'type':'FG',R:'index':1,'type':'FG'}%%%"=T pbc="F F F"
C       -0.57156000       2.27866000       0.00000000
C        1.75306000      -0.31123000       0.00000000
C        1.65940000       2.30251000      -0.00000000
C        1.28845000       0.98865000       0.00000000
C       -0.10622000       0.97951000       0.00000000
C       -0.47792000      -0.33381000      -0.00000000
N        0.53085000       3.08576000      -0.00000000
N        0.65003000      -1.11769000      -0.00000000
O        2.68272000       2.98868000      -0.00000000
O       -1.52533000      -0.99533000      -0.00000000
C        0.50321000       4.54391000      -0.00000000
H       -0.54438000       4.91456000      -0.00000000
H        1.01847000       4.92769000      -0.90547000
H        1.01847000       4.92769000       0.90547000
C        0.67502000      -2.57587000      -0.00000000
H        1.72166000      -2.94887000      -0.00000000
H        0.15853000      -2.95844000      -0.90536000
H        0.15853000      -2.95845000       0.90536000
C       -4.81812000       2.37109000       0.00000000
C       -2.02156000       2.27866000       0.00000000
C       -4.07896000       3.55893000       0.00000000
C       -4.15900000       1.13703000       0.00000000
C       -2.68068000       3.51271000       0.00000000
H       -4.58887000       4.51362000       0.00000000
H       -2.10885000       4.43166000       0.00000000
C       -2.76072000       1.09082000       0.00000000
H       -4.73084000       0.21809000       0.00000000
H       -2.25081000       0.13613000       0.00000000
C        3.20306000      -0.31123000       0.00000000
C        5.99962000      -0.40366000       0.00000000
C        3.94222000       0.87661000       0.00000000
C        3.86218000      -1.54529000       0.00000000
C        5.34050000       0.83039000       0.00000000
H        3.43231000       1.83130000       0.00000000
H        5.91233000       1.74934000       0.00000000
C        5.26046000      -1.59150000       0.00000000
H        3.29034000      -2.46423000       0.00000000
H        5.77037000      -2.54619000       0.00000000
C        7.44962000      -0.40366000       0.00000000
C       16.01524000      -1.53631000       0.00000000
C        7.93589000      -1.70792000       0.00000000
S        8.75239000       0.67218000       0.00000000
C        9.33387000      -1.76550000       0.00000000
H        7.29595000      -2.58087000       0.00000000
C        9.94404000      -0.51826000       0.00000000
C       11.33824000      -0.37633000       0.00000000
C       10.10103000      -2.93213000       0.00000000
C       12.12662000      -1.56364000       0.00000000
C       11.50030000      -2.83032000       0.00000000
H        9.62673000      -3.90560000       0.00000000
H       12.08780000      -3.73958000       0.00000000
C       11.96456000       0.89036000       0.00000000
C       13.52083000      -1.42171000       0.00000000
C       14.13099000      -0.17447000       0.00000000
C       13.36383000       0.99216000       0.00000000
H       11.37706000       1.79962000       0.00000000
H       13.83813000       1.96563000       0.00000000
C       15.52898000      -0.23205000       0.00000000
S       14.71247000      -2.61215000       0.00000000
H       16.16891000       0.64089000       0.00000000
C       17.46524000      -1.53631000       0.00000000
C       19.97095000      -1.45588000      -0.11126000
C       18.05478000      -2.79224000      -0.00674000
C       19.46020000      -2.74524000      -0.06917000
H       17.47796000      -3.70654000       0.03254000
S       18.68188000      -0.37753000      -0.07110000
O       20.27288000      -3.82964000      -0.08831000
C       19.83875000      -5.13935000      -0.04909000
C       21.03922000      -6.07585000      -0.08752000
H       19.18567000      -5.34516000      -0.92586000
H       19.26551000      -5.31727000       0.88757000
O       20.58003000      -7.40967000      -0.04659000
H       21.67854000      -5.85154000       0.79736000
H       21.59795000      -5.87983000      -1.03169000
C       21.68413000      -8.28819000      -0.08230000
C       21.17631000      -9.72392000      -0.03560000
H       22.34410000      -8.12839000       0.80145000
H       22.26098000      -8.15824000      -1.02698000
O       22.28040000     -10.60247000      -0.07132000
H       20.51637000      -9.88392000      -0.91932000
H       20.59943000      -9.85365000       0.90911000
C       21.82134000     -11.93644000      -0.02698000
C       23.02130000     -12.87473000      -0.06664000
H       21.17935000     -12.16207000      -0.90960000
H       21.26448000     -12.13052000       0.91871000
O       22.56291000     -14.20874000      -0.02219000
H       23.66336000     -12.64872000       0.81598000
H       23.57819000     -12.68037000      -1.01239000
C       23.66853000     -15.08179000      -0.05848000
H       23.29083000     -16.12422000      -0.02269000
H       24.32425000     -14.94278000       0.82976000
H       24.23860000     -14.97482000      -1.00814000
C       -6.26812000       2.37109000       0.00000000
H       -6.56812000       3.37109000       0.01000000
H       -6.56812000       1.77109000       0.80000000
H       -6.56812000       1.97109000      -0.90000000
C       21.42095000      -1.45588000      -0.11126000
H       21.72095000      -2.45588000      -0.12126000
H       21.72095000      -0.85588000      -0.91126000
H       21.72095000      -1.05588000       0.78874000
