66
Properties=species:S:1:pos:R:3 "%%%'L':{'index':0,'type':'FG',R:'index':1,'type':'FG'}%%%"=T pbc="F F F"
C       -0.57156000       2.27866000       0.00000000
C        1.75306000      -0.31123000       0.00000000
C        1.65940000       2.30251000      -0.00000000
C        1.28845000       0.98865000       0.00000000
C       -0.10622000       0.97951000       0.00000000
C       -0.47792000      -0.33381000      -0.00000000
N        0.53085000       3.08576000      -0.00000000
N        0.65003000      -1.11769000      -0.00000000
O        2.68272000       2.98868000      -0.00000000
O       -1.52533000      -0.99533000      -0.00000000
C        0.50321000       4.54391000      -0.00000000
H       -0.54438000       4.91456000      -0.00000000
H        1.01847000       4.92769000      -0.90547000
H        1.01847000       4.92769000       0.90547000
C        0.67502000      -2.57587000      -0.00000000
H        1.72166000      -2.94887000      -0.00000000
H        0.15853000      -2.95844000      -0.90536000
H        0.15853000      -2.95845000       0.90536000
C       -4.81812000       2.37109000       0.00000000
C       -2.02156000       2.27866000       0.00000000
C       -4.07896000       3.55893000       0.00000000
C       -4.15900000       1.13703000       0.00000000
C       -2.68068000       3.51271000       0.00000000
H       -4.58887000       4.51362000       0.00000000
H       -2.10885000       4.43166000       0.00000000
C       -2.76072000       1.09082000       0.00000000
H       -4.73084000       0.21809000       0.00000000
H       -2.25081000       0.13613000       0.00000000
C        3.20306000      -0.31123000       0.00000000
C        5.99962000      -0.40366000       0.00000000
C        3.94222000       0.87661000       0.00000000
C        3.86218000      -1.54529000       0.00000000
C        5.34050000       0.83039000       0.00000000
H        3.43231000       1.83130000       0.00000000
H        5.91233000       1.74934000       0.00000000
C        5.26046000      -1.59150000       0.00000000
H        3.29034000      -2.46423000       0.00000000
H        5.77037000      -2.54619000       0.00000000
C        7.44962000      -0.40366000       0.00000000
C       10.24618000      -0.49609000       0.00000000
C        8.18878000       0.78418000       0.00000000
C        8.10874000      -1.63772000       0.00000000
C        9.58706000       0.73796000       0.00000000
H        7.67887000       1.73887000       0.00000000
H       10.15889000       1.65691000       0.00000000
C        9.50702000      -1.68393000       0.00000000
H        7.53690000      -2.55666000       0.00000000
H       10.01693000      -2.63862000       0.00000000
C       11.69618000      -0.49609000       0.00000000
C       16.19354000       0.31509000       0.00000000
C       12.74714000      -1.41982000       0.00000000
C       13.97365000      -0.76775000       0.00000000
C       13.91606000       0.58675000       0.00000000
C       15.14258000       1.23881000       0.00000000
H       12.62151000      -2.49417000       0.00000000
H       15.26820000       2.31316000       0.00000000
S       12.31836000       1.09342000       0.00000000
S       15.57136000      -1.27443000       0.00000000
C       -6.26812000       2.37109000       0.00000000
H       -6.56812000       3.37109000       0.01000000
H       -6.56812000       1.77109000       0.80000000
H       -6.56812000       1.97109000      -0.90000000
C       17.64354000       0.31509000       0.00000000
H       17.94354000      -0.68491000      -0.01000000
H       17.94354000       0.91509000      -0.80000000
H       17.94354000       0.71509000       0.90000000
