100
Properties=species:S:1:pos:R:3 "%%%'L':{'index':0,'type':'FG',R:'index':1,'type':'FG'}%%%"=T pbc="F F F"
C       -0.57156000       2.27866000       0.00000000
C        1.75306000      -0.31123000       0.00000000
C        1.65940000       2.30251000      -0.00000000
C        1.28845000       0.98865000       0.00000000
C       -0.10622000       0.97951000       0.00000000
C       -0.47792000      -0.33381000      -0.00000000
N        0.53085000       3.08576000      -0.00000000
N        0.65003000      -1.11769000      -0.00000000
O        2.68272000       2.98868000      -0.00000000
O       -1.52533000      -0.99533000      -0.00000000
C        0.50321000       4.54391000      -0.00000000
H       -0.54438000       4.91456000      -0.00000000
H        1.01847000       4.92769000      -0.90547000
H        1.01847000       4.92769000       0.90547000
C        0.67502000      -2.57587000      -0.00000000
H        1.72166000      -2.94887000      -0.00000000
H        0.15853000      -2.95844000      -0.90536000
H        0.15853000      -2.95845000       0.90536000
C       -4.81812000       2.37109000       0.00000000
C       -2.02156000       2.27866000       0.00000000
C       -4.07896000       3.55893000       0.00000000
C       -4.15900000       1.13703000       0.00000000
C       -2.68068000       3.51271000       0.00000000
H       -4.58887000       4.51362000       0.00000000
H       -2.10885000       4.43166000       0.00000000
C       -2.76072000       1.09082000       0.00000000
H       -4.73084000       0.21809000       0.00000000
H       -2.25081000       0.13613000       0.00000000
C        3.20306000      -0.31123000       0.00000000
C        5.99962000      -0.40366000       0.00000000
C        3.94222000       0.87661000       0.00000000
C        3.86218000      -1.54529000       0.00000000
C        5.34050000       0.83039000       0.00000000
H        3.43231000       1.83130000       0.00000000
H        5.91233000       1.74934000       0.00000000
C        5.26046000      -1.59150000       0.00000000
H        3.29034000      -2.46423000       0.00000000
H        5.77037000      -2.54619000       0.00000000
C        7.44962000      -0.40366000       0.00000000
C        9.95533000      -0.32323000      -0.11126000
C        8.03916000      -1.65959000      -0.00674000
C        9.44458000      -1.61259000      -0.06917000
H        7.46234000      -2.57389000       0.03254000
S        8.66626000       0.75512000      -0.07110000
O       10.25726000      -2.69699000      -0.08831000
C        9.82313000      -4.00670000      -0.04909000
C       11.02360000      -4.94320000      -0.08752000
H        9.17005000      -4.21251000      -0.92586000
H        9.24989000      -4.18462000       0.88757000
O       10.56441000      -6.27702000      -0.04659000
H       11.66292000      -4.71889000       0.79736000
H       11.58233000      -4.74718000      -1.03169000
C       11.66851000      -7.15554000      -0.08230000
C       11.16069000      -8.59127000      -0.03560000
H       12.32848000      -6.99574000       0.80145000
H       12.24536000      -7.02559000      -1.02698000
O       12.26478000      -9.46982000      -0.07132000
H       10.50075000      -8.75127000      -0.91932000
H       10.58381000      -8.72100000       0.90911000
C       11.80572000     -10.80379000      -0.02698000
C       13.00568000     -11.74208000      -0.06664000
H       11.16373000     -11.02942000      -0.90960000
H       11.24886000     -10.99787000       0.91871000
O       12.54729000     -13.07609000      -0.02219000
H       13.64774000     -11.51607000       0.81598000
H       13.56257000     -11.54772000      -1.01239000
C       13.65291000     -13.94914000      -0.05848000
H       13.27521000     -14.99157000      -0.02269000
H       14.30863000     -13.81013000       0.82976000
H       14.22298000     -13.84217000      -1.00814000
C       11.40533000      -0.32323000      -0.11126000
C       19.97095000      -1.45588000      -0.13085688
C       12.21386504       0.80962635      -0.11237251
S       12.38371716      -1.70052213      -0.11424055
C       13.57876557       0.50188421      -0.11557089
H       11.82279730       1.81876283      -0.11090843
C       13.84380857      -0.86088480      -0.11696687
C       15.15320643      -1.36026755      -0.12015659
C       14.62276725       1.42885825      -0.11732604
C       16.22307357      -0.41884245      -0.12196029
C       15.94748804       0.96689289      -0.12052736
H       14.41777206       2.49199507      -0.11624091
H       16.75111374       1.69207475      -0.12187148
C       15.42878936      -2.74601254      -0.12158952
C       17.53248108      -0.91822780      -0.12515004
C       17.79751443      -2.28099421      -0.12654599
C       16.75351275      -3.20796825      -0.12479084
H       14.62516366      -3.47119441      -0.12024541
H       16.95850794      -4.27110507      -0.12587597
C       19.16242462      -2.58873895      -0.12974439
S       18.99256284      -0.07858787      -0.12787634
H       19.55348530      -3.59786318      -0.13120846
C       -6.26812000       2.37109000       0.00000000
H       -6.56812000       3.37109000       0.01000000
H       -6.56812000       1.77109000       0.80000000
H       -6.56812000       1.97109000      -0.90000000
C       21.42095000      -1.45588000      -0.13085688
H       21.72095000      -2.45588000      -0.14085688
H       21.72095000      -0.85588000      -0.93085688
H       21.72095000      -1.05588000       0.76914312
