120
Properties=species:S:1:pos:R:3 "%%%'L':{'index':0,'type':'FG',R:'index':1,'type':'FG'}%%%"=T pbc="F F F"
C       -0.57156000       2.27866000       0.00000000
C        1.75306000      -0.31123000       0.00000000
C        1.65940000       2.30251000      -0.00000000
C        1.28845000       0.98865000       0.00000000
C       -0.10622000       0.97951000       0.00000000
C       -0.47792000      -0.33381000      -0.00000000
N        0.53085000       3.08576000      -0.00000000
N        0.65003000      -1.11769000      -0.00000000
O        2.68272000       2.98868000      -0.00000000
O       -1.52533000      -0.99533000      -0.00000000
C        0.50321000       4.54391000      -0.00000000
H       -0.54438000       4.91456000      -0.00000000
H        1.01847000       4.92769000      -0.90547000
H        1.01847000       4.92769000       0.90547000
C        0.67502000      -2.57587000      -0.00000000
H        1.72166000      -2.94887000      -0.00000000
H        0.15853000      -2.95844000      -0.90536000
H        0.15853000      -2.95845000       0.90536000
C       -4.81812000       2.37109000       0.00000000
C       -2.02156000       2.27866000       0.00000000
C       -4.07896000       3.55893000       0.00000000
C       -4.15900000       1.13703000       0.00000000
C       -2.68068000       3.51271000       0.00000000
H       -4.58887000       4.51362000       0.00000000
H       -2.10885000       4.43166000       0.00000000
C       -2.76072000       1.09082000       0.00000000
H       -4.73084000       0.21809000       0.00000000
H       -2.25081000       0.13613000       0.00000000
C        3.20306000      -0.31123000       0.00000000
C        5.99962000      -0.40366000       0.00000000
C        3.94222000       0.87661000       0.00000000
C        3.86218000      -1.54529000       0.00000000
C        5.34050000       0.83039000       0.00000000
H        3.43231000       1.83130000       0.00000000
H        5.91233000       1.74934000       0.00000000
C        5.26046000      -1.59150000       0.00000000
H        3.29034000      -2.46423000       0.00000000
H        5.77037000      -2.54619000       0.00000000
C        7.44962000      -0.40366000       0.00000000
C        9.95533000      -0.32323000      -0.11126000
C        8.03916000      -1.65959000      -0.00674000
C        9.44458000      -1.61259000      -0.06917000
H        7.46234000      -2.57389000       0.03254000
S        8.66626000       0.75512000      -0.07110000
O       10.25726000      -2.69699000      -0.08831000
C        9.82313000      -4.00670000      -0.04909000
C       11.02360000      -4.94320000      -0.08752000
H        9.17005000      -4.21251000      -0.92586000
H        9.24989000      -4.18462000       0.88757000
O       10.56441000      -6.27702000      -0.04659000
H       11.66292000      -4.71889000       0.79736000
H       11.58233000      -4.74718000      -1.03169000
C       11.66851000      -7.15554000      -0.08230000
C       11.16069000      -8.59127000      -0.03560000
H       12.32848000      -6.99574000       0.80145000
H       12.24536000      -7.02559000      -1.02698000
O       12.26478000      -9.46982000      -0.07132000
H       10.50075000      -8.75127000      -0.91932000
H       10.58381000      -8.72100000       0.90911000
C       11.80572000     -10.80379000      -0.02698000
C       13.00568000     -11.74208000      -0.06664000
H       11.16373000     -11.02942000      -0.90960000
H       11.24886000     -10.99787000       0.91871000
O       12.54729000     -13.07609000      -0.02219000
H       13.64774000     -11.51607000       0.81598000
H       13.56257000     -11.54772000      -1.01239000
C       13.65291000     -13.94914000      -0.05848000
H       13.27521000     -14.99157000      -0.02269000
H       14.30863000     -13.81013000       0.82976000
H       14.22298000     -13.84217000      -1.00814000
C       11.40533000      -0.32323000      -0.11126000
C       18.70029000      -0.00682000      -1.79730000
C       11.42094000       0.76017000      -0.96678000
C       12.61744000       1.17929000      -1.53543000
H       10.50137000       1.29116000      -1.17527000
C       12.58281000      -0.99761000       0.17876000
C       13.84254000       0.50669000      -1.28094000
H       12.54645000       2.05277000      -2.15480000
C       13.82519000      -0.61594000      -0.39674000
H       12.47988000      -1.79891000       0.88662000
C       15.07017000       0.96432000      -1.84383000
C       15.03552000      -1.29420000      -0.06434000
C       16.28047000       0.28597000      -1.51156000
C       16.26313000      -0.83668000      -0.62741000
C       17.52282000       0.66764000      -2.08713000
C       17.48823000      -1.50936000      -0.37312000
H       17.62570000       1.46901000      -2.79495000
C       18.68469000      -1.09029000      -0.94189000
H       17.55926000      -2.38292000       0.24614000
H       19.60425000      -1.62138000      -0.73356000
C       15.09383000       2.14398000      -2.77689000
S       14.11968000       2.35626000      -4.14559000
C       14.76384000       3.83822000      -4.60377000
C       15.75273000       4.19660000      -3.70064000
C       15.93935000       3.25312000      -2.68406000
H       16.32376000       5.11311000      -3.77146000
H       16.66864000       3.38666000      -1.89545000
C       15.01212000      -2.47350000       0.86923000
S       15.98682000      -2.68501000       2.23756000
C       15.34388000      -4.16604000       2.69745000
C       14.35387000      -4.52554000       1.79474000
C       14.16664000      -3.58269000       0.77762000
H       13.43693000      -3.71680000      -0.01050000
H       13.78213000      -5.44163000       1.86513000
C       14.33968000       4.63782000      -5.78949000
H       13.52859000       4.11447000      -6.33774000
H       15.20363000       4.77925000      -6.47178000
H       13.96872000       5.62955000      -5.45661000
C       15.77893000      -4.95454000       3.88701000
H       15.19606000      -5.89631000       3.96756000
H       15.62218000      -4.35396000       4.80694000
H       16.85601000      -5.20439000       3.79188000
C       -6.26812000       2.37109000       0.00000000
H       -6.56812000       3.37109000       0.01000000
H       -6.56812000       1.77109000       0.80000000
H       -6.56812000       1.97109000      -0.90000000
C       20.15029000      -0.00682000      -1.79730000
H       20.45029000      -1.00682000      -1.80730000
H       20.45029000       0.59318000      -2.59730000
H       20.45029000       0.39318000      -0.89730000
