73
Properties=species:S:1:pos:R:3 "%%%'L':{'index':0,'type':'FG',R:'index':1,'type':'FG'}%%%"=T pbc="F F F"
C       -0.57156000       2.27866000       0.00000000
C        1.75306000      -0.31123000       0.00000000
C        1.65940000       2.30251000      -0.00000000
C        1.28845000       0.98865000       0.00000000
C       -0.10622000       0.97951000       0.00000000
C       -0.47792000      -0.33381000      -0.00000000
N        0.53085000       3.08576000      -0.00000000
N        0.65003000      -1.11769000      -0.00000000
O        2.68272000       2.98868000      -0.00000000
O       -1.52533000      -0.99533000      -0.00000000
C        0.50321000       4.54391000      -0.00000000
H       -0.54438000       4.91456000      -0.00000000
H        1.01847000       4.92769000      -0.90547000
H        1.01847000       4.92769000       0.90547000
C        0.67502000      -2.57587000      -0.00000000
H        1.72166000      -2.94887000      -0.00000000
H        0.15853000      -2.95844000      -0.90536000
H        0.15853000      -2.95845000       0.90536000
C       -4.81812000       2.37109000       0.00000000
C       -2.02156000       2.27866000       0.00000000
C       -4.07896000       3.55893000       0.00000000
C       -4.15900000       1.13703000       0.00000000
C       -2.68068000       3.51271000       0.00000000
H       -4.58887000       4.51362000       0.00000000
H       -2.10885000       4.43166000       0.00000000
C       -2.76072000       1.09082000       0.00000000
H       -4.73084000       0.21809000       0.00000000
H       -2.25081000       0.13613000       0.00000000
C        3.20306000      -0.31123000       0.00000000
C        5.99962000      -0.40366000       0.00000000
C        3.94222000       0.87661000       0.00000000
C        3.86218000      -1.54529000       0.00000000
C        5.34050000       0.83039000       0.00000000
H        3.43231000       1.83130000       0.00000000
H        5.91233000       1.74934000       0.00000000
C        5.26046000      -1.59150000       0.00000000
H        3.29034000      -2.46423000       0.00000000
H        5.77037000      -2.54619000       0.00000000
C        7.44962000      -0.40366000       0.00000000
C       13.70033000      -0.05253000      -0.10614000
C       13.07971000      -1.31481000      -0.13089000
C        8.20758000      -1.58788000      -0.04814000
S        8.49987000       0.95611000       0.01957000
C        9.87750000       0.01491000      -0.03311000
C        9.56648000      -1.30202000      -0.06519000
H        7.78689000      -2.58401000      -0.06896000
C       11.24199000       0.09016000      -0.05632000
C       11.69628000      -1.18510000      -0.10144000
N       10.67596000      -2.08060000      -0.10821000
S       12.50574000       1.18048000      -0.04847000
H       13.61355000      -2.25430000      -0.16783000
C       10.73857000      -3.53724000      -0.15126000
H       11.79168000      -3.88569000      -0.18086000
H       10.21420000      -3.90553000      -1.05773000
H       10.24783000      -3.95755000       0.75141000
C       15.15033000      -0.05253000      -0.10614000
C       19.64769000       0.75865000      -0.09220777
C       15.81236947       1.18000079      -0.10288426
C       17.18939302       0.99759065      -0.09908470
C       17.60861761      -0.29147415      -0.09926310
C       18.98564704      -0.47387143      -0.09546351
H       15.31933823       2.14260390      -0.10327345
H       19.47866890      -1.43647803      -0.09507435
S       16.28859124      -1.32428767      -0.10421257
S       18.50942527       2.03041704      -0.09413520
C       -6.26812000       2.37109000       0.00000000
H       -6.56812000       3.37109000       0.01000000
H       -6.56812000       1.77109000       0.80000000
H       -6.56812000       1.97109000      -0.90000000
C       21.09769000       0.75865000      -0.09220777
H       21.39769000      -0.24135000      -0.10220777
H       21.39769000       1.35865000      -0.89220777
H       21.39769000       1.15865000       0.80779223
