93
Properties=species:S:1:pos:R:3 "%%%'L':{'index':0,'type':'FG',R:'index':1,'type':'FG'}%%%"=T pbc="F F F"
C       -0.57156000       2.27866000       0.00000000
C        1.75306000      -0.31123000       0.00000000
C        1.65940000       2.30251000      -0.00000000
C        1.28845000       0.98865000       0.00000000
C       -0.10622000       0.97951000       0.00000000
C       -0.47792000      -0.33381000      -0.00000000
N        0.53085000       3.08576000      -0.00000000
N        0.65003000      -1.11769000      -0.00000000
O        2.68272000       2.98868000      -0.00000000
O       -1.52533000      -0.99533000      -0.00000000
C        0.50321000       4.54391000      -0.00000000
H       -0.54438000       4.91456000      -0.00000000
H        1.01847000       4.92769000      -0.90547000
H        1.01847000       4.92769000       0.90547000
C        0.67502000      -2.57587000      -0.00000000
H        1.72166000      -2.94887000      -0.00000000
H        0.15853000      -2.95844000      -0.90536000
H        0.15853000      -2.95845000       0.90536000
C       -4.81812000       2.37109000       0.00000000
C       -2.02156000       2.27866000       0.00000000
C       -4.07896000       3.55893000       0.00000000
C       -4.15900000       1.13703000       0.00000000
C       -2.68068000       3.51271000       0.00000000
H       -4.58887000       4.51362000       0.00000000
H       -2.10885000       4.43166000       0.00000000
C       -2.76072000       1.09082000       0.00000000
H       -4.73084000       0.21809000       0.00000000
H       -2.25081000       0.13613000       0.00000000
C        3.20306000      -0.31123000       0.00000000
C        5.99962000      -0.40366000       0.00000000
C        3.94222000       0.87661000       0.00000000
C        3.86218000      -1.54529000       0.00000000
C        5.34050000       0.83039000       0.00000000
H        3.43231000       1.83130000       0.00000000
H        5.91233000       1.74934000       0.00000000
C        5.26046000      -1.59150000       0.00000000
H        3.29034000      -2.46423000       0.00000000
H        5.77037000      -2.54619000       0.00000000
C        7.44962000      -0.40366000       0.00000000
C       16.01524000      -1.53631000       0.00000000
C        7.93589000      -1.70792000       0.00000000
S        8.75239000       0.67218000       0.00000000
C        9.33387000      -1.76550000       0.00000000
H        7.29595000      -2.58087000       0.00000000
C        9.94404000      -0.51826000       0.00000000
C       11.33824000      -0.37633000       0.00000000
C       10.10103000      -2.93213000       0.00000000
C       12.12662000      -1.56364000       0.00000000
C       11.50030000      -2.83032000       0.00000000
H        9.62673000      -3.90560000       0.00000000
H       12.08780000      -3.73958000       0.00000000
C       11.96456000       0.89036000       0.00000000
C       13.52083000      -1.42171000       0.00000000
C       14.13099000      -0.17447000       0.00000000
C       13.36383000       0.99216000       0.00000000
H       11.37706000       1.79962000       0.00000000
H       13.83813000       1.96563000       0.00000000
C       15.52898000      -0.23205000       0.00000000
S       14.71247000      -2.61215000       0.00000000
H       16.16891000       0.64089000       0.00000000
C       17.46524000      -1.53631000       0.00000000
C       19.96601000      -1.51067000      -0.12993000
C       18.02752000      -2.80435000      -0.01550000
C       19.43464000      -2.79582000      -0.08854000
H       17.42230000      -3.69940000       0.02552000
S       18.70296000      -0.40369000      -0.07637000
C       20.32767000      -4.01304000      -0.12174000
C       19.57316000      -5.34952000      -0.06823000
H       21.02110000      -3.95728000       0.74564000
H       20.92760000      -3.97668000      -1.05718000
C       20.54773000      -6.53293000      -0.10611000
H       18.88536000      -5.41808000      -0.93986000
H       18.97933000      -5.39862000       0.87117000
C       19.79503000      -7.86771000      -0.05271000
H       21.23920000      -6.46691000       0.76290000
H       21.14543000      -6.48629000      -1.04325000
C       20.76994000      -9.05017000      -0.09070000
H       19.10361000      -7.93427000      -0.92174000
H       19.19743000      -7.91493000       0.88449000
C       20.02472000     -10.38068000      -0.03774000
H       21.46205000      -8.99205000       0.77763000
H       21.36828000      -9.01137000      -1.02712000
H       19.43460000     -10.45568000       0.90047000
H       20.75419000     -11.21734000      -0.06669000
H       19.34063000     -10.47503000      -0.90792000
C       -6.26812000       2.37109000       0.00000000
H       -6.56812000       3.37109000       0.01000000
H       -6.56812000       1.77109000       0.80000000
H       -6.56812000       1.97109000      -0.90000000
C       21.41601000      -1.51067000      -0.12993000
H       21.71601000      -2.51067000      -0.13993000
H       21.71601000      -0.91067000      -0.92993000
H       21.71601000      -1.11067000       0.77007000
