81
Properties=species:S:1:pos:R:3 "%%%'L':{'index':0,'type':'FG',R:'index':1,'type':'FG'}%%%"=T pbc="F F F"
C       -0.57156000       2.27866000       0.00000000
C        1.75306000      -0.31123000       0.00000000
C        1.65940000       2.30251000      -0.00000000
C        1.28845000       0.98865000       0.00000000
C       -0.10622000       0.97951000       0.00000000
C       -0.47792000      -0.33381000      -0.00000000
N        0.53085000       3.08576000      -0.00000000
N        0.65003000      -1.11769000      -0.00000000
O        2.68272000       2.98868000      -0.00000000
O       -1.52533000      -0.99533000      -0.00000000
C        0.50321000       4.54391000      -0.00000000
H       -0.54438000       4.91456000      -0.00000000
H        1.01847000       4.92769000      -0.90547000
H        1.01847000       4.92769000       0.90547000
C        0.67502000      -2.57587000      -0.00000000
H        1.72166000      -2.94887000      -0.00000000
H        0.15853000      -2.95844000      -0.90536000
H        0.15853000      -2.95845000       0.90536000
C       -4.81812000       2.37109000       0.00000000
C       -2.02156000       2.27866000       0.00000000
C       -4.07896000       3.55893000       0.00000000
C       -4.15900000       1.13703000       0.00000000
C       -2.68068000       3.51271000       0.00000000
H       -4.58887000       4.51362000       0.00000000
H       -2.10885000       4.43166000       0.00000000
C       -2.76072000       1.09082000       0.00000000
H       -4.73084000       0.21809000       0.00000000
H       -2.25081000       0.13613000       0.00000000
C        3.20306000      -0.31123000       0.00000000
C        5.99962000      -0.40366000       0.00000000
C        3.94222000       0.87661000       0.00000000
C        3.86218000      -1.54529000       0.00000000
C        5.34050000       0.83039000       0.00000000
H        3.43231000       1.83130000       0.00000000
H        5.91233000       1.74934000       0.00000000
C        5.26046000      -1.59150000       0.00000000
H        3.29034000      -2.46423000       0.00000000
H        5.77037000      -2.54619000       0.00000000
C        7.44962000      -0.40366000       0.00000000
C        9.95039000      -0.37802000      -0.12993000
C        8.01190000      -1.67170000      -0.01550000
C        9.41902000      -1.66317000      -0.08854000
H        7.40668000      -2.56675000       0.02552000
S        8.68734000       0.72896000      -0.07637000
C       10.31205000      -2.88039000      -0.12174000
C        9.55754000      -4.21687000      -0.06823000
H       11.00548000      -2.82463000       0.74564000
H       10.91198000      -2.84403000      -1.05718000
C       10.53211000      -5.40028000      -0.10611000
H        8.86974000      -4.28543000      -0.93986000
H        8.96371000      -4.26597000       0.87117000
C        9.77941000      -6.73506000      -0.05271000
H       11.22358000      -5.33426000       0.76290000
H       11.12981000      -5.35364000      -1.04325000
C       10.75432000      -7.91752000      -0.09070000
H        9.08799000      -6.80162000      -0.92174000
H        9.18181000      -6.78228000       0.88449000
C       10.00910000      -9.24803000      -0.03774000
H       11.44643000      -7.85940000       0.77763000
H       11.35266000      -7.87872000      -1.02712000
H        9.41898000      -9.32303000       0.90047000
H       10.73857000     -10.08469000      -0.06669000
H        9.32501000      -9.34238000      -0.90792000
C       11.40039000      -0.37802000      -0.12993000
C       14.19695000      -0.47045000      -0.12993000
C       12.13955000       0.80982000      -0.12993000
C       12.05951000      -1.61208000      -0.12993000
C       13.53783000       0.76360000      -0.12993000
H       11.62964000       1.76451000      -0.12993000
H       14.10966000       1.68255000      -0.12993000
C       13.45779000      -1.65829000      -0.12993000
H       11.48767000      -2.53102000      -0.12993000
H       13.96770000      -2.61298000      -0.12993000
C       -6.26812000       2.37109000       0.00000000
H       -6.56812000       3.37109000       0.01000000
H       -6.56812000       1.77109000       0.80000000
H       -6.56812000       1.97109000      -0.90000000
C       15.64695000      -0.47045000      -0.12993000
H       15.94695000      -1.47045000      -0.13993000
H       15.94695000       0.12955000      -0.92993000
H       15.94695000      -0.07045000       0.77007000
