85
Properties=species:S:1:pos:R:3 "%%%'L':{'index':0,'type':'FG',R:'index':1,'type':'FG'}%%%"=T pbc="F F F"
C       -0.57156000       2.27866000       0.00000000
C        1.75306000      -0.31123000       0.00000000
C        1.65940000       2.30251000      -0.00000000
C        1.28845000       0.98865000       0.00000000
C       -0.10622000       0.97951000       0.00000000
C       -0.47792000      -0.33381000      -0.00000000
N        0.53085000       3.08576000      -0.00000000
N        0.65003000      -1.11769000      -0.00000000
O        2.68272000       2.98868000      -0.00000000
O       -1.52533000      -0.99533000      -0.00000000
C        0.50321000       4.54391000      -0.00000000
H       -0.54438000       4.91456000      -0.00000000
H        1.01847000       4.92769000      -0.90547000
H        1.01847000       4.92769000       0.90547000
C        0.67502000      -2.57587000      -0.00000000
H        1.72166000      -2.94887000      -0.00000000
H        0.15853000      -2.95844000      -0.90536000
H        0.15853000      -2.95845000       0.90536000
C       -4.81812000       2.37109000       0.00000000
C       -2.02156000       2.27866000       0.00000000
C       -4.07896000       3.55893000       0.00000000
C       -4.15900000       1.13703000       0.00000000
C       -2.68068000       3.51271000       0.00000000
H       -4.58887000       4.51362000       0.00000000
H       -2.10885000       4.43166000       0.00000000
C       -2.76072000       1.09082000       0.00000000
H       -4.73084000       0.21809000       0.00000000
H       -2.25081000       0.13613000       0.00000000
C        3.20306000      -0.31123000       0.00000000
C        5.99962000      -0.40366000       0.00000000
C        3.94222000       0.87661000       0.00000000
C        3.86218000      -1.54529000       0.00000000
C        5.34050000       0.83039000       0.00000000
H        3.43231000       1.83130000       0.00000000
H        5.91233000       1.74934000       0.00000000
C        5.26046000      -1.59150000       0.00000000
H        3.29034000      -2.46423000       0.00000000
H        5.77037000      -2.54619000       0.00000000
C        7.44962000      -0.40366000       0.00000000
C        9.95061000      -0.24885000       0.00000000
C        8.08030000      -1.63948000       0.00000000
C        9.47715000      -1.55302000       0.00000000
H        7.54384000      -2.57893000       0.00000000
H       10.12538000      -2.41914000       0.00000000
S        8.63083000       0.79300000       0.00000000
C       11.40061000      -0.24885000       0.00000000
C       13.90632000      -0.16842000      -0.10979617
C       11.90781367       1.04239727      -0.04255401
C       13.31335533       1.08562533      -0.10411554
H       11.27313857       1.91788961      -0.02903809
S       12.68956806      -1.32730316      -0.03861851
O       14.05431342       2.21999395      -0.15430527
C       13.53647918       3.49926551      -0.15246479
C       14.67397598       4.51089792      -0.21786430
H       12.95240865       3.64953143       0.77860423
H       12.87197206       3.65332249      -1.03450230
O       14.12955499       5.81262798      -0.21547237
H       15.24481602       4.34139981      -1.15583795
H       15.32587342       4.33773148       0.67289161
C       15.17468216       6.76020572      -0.27522269
C       14.57496476       8.16055509      -0.27408830
H       15.76207053       6.65639636      -1.21375419
H       15.84045920       6.65412975       0.61458369
O       15.62008098       9.10816196      -0.33382773
H       13.98759090       8.26456638       0.66441110
H       13.90916913       8.26641003      -1.16392238
C       15.07547593      10.41009984      -0.33484299
C       16.21246219      11.42346733      -0.39896896
H       14.50169706      10.58077506       0.60111750
H       14.42542453      10.58147386      -1.22728122
O       15.66851080      12.72549013      -0.40015264
H       16.78633467      11.25241749      -1.33493640
H       16.86256646      11.25181500       0.49352580
C       16.71554639      13.66769993      -0.45947037
H       16.27100918      14.68388646      -0.45973096
H       17.29699569      13.58442489      -1.40205665
H       17.37357475      13.58404146       0.43593967
C       -6.26812000       2.37109000       0.00000000
H       -6.56812000       3.37109000       0.01000000
H       -6.56812000       1.77109000       0.80000000
H       -6.56812000       1.97109000      -0.90000000
C       15.35632000      -0.16842000      -0.10979617
H       15.65632000      -1.16842000      -0.11979617
H       15.65632000       0.43158000      -0.90979617
H       15.65632000       0.23158000       0.79020383
