110
Properties=species:S:1:pos:R:3 "%%%'L':{'index':0,'type':'FG',R:'index':1,'type':'FG'}%%%"=T pbc="F F F"
C       -0.57156000       2.27866000       0.00000000
C        1.75306000      -0.31123000       0.00000000
C        1.65940000       2.30251000      -0.00000000
C        1.28845000       0.98865000       0.00000000
C       -0.10622000       0.97951000       0.00000000
C       -0.47792000      -0.33381000      -0.00000000
N        0.53085000       3.08576000      -0.00000000
N        0.65003000      -1.11769000      -0.00000000
O        2.68272000       2.98868000      -0.00000000
O       -1.52533000      -0.99533000      -0.00000000
C        0.50321000       4.54391000      -0.00000000
H       -0.54438000       4.91456000      -0.00000000
H        1.01847000       4.92769000      -0.90547000
H        1.01847000       4.92769000       0.90547000
C        0.67502000      -2.57587000      -0.00000000
H        1.72166000      -2.94887000      -0.00000000
H        0.15853000      -2.95844000      -0.90536000
H        0.15853000      -2.95845000       0.90536000
C       -4.81812000       2.37109000       0.00000000
C       -2.02156000       2.27866000       0.00000000
C       -4.07896000       3.55893000       0.00000000
C       -4.15900000       1.13703000       0.00000000
C       -2.68068000       3.51271000       0.00000000
H       -4.58887000       4.51362000       0.00000000
H       -2.10885000       4.43166000       0.00000000
C       -2.76072000       1.09082000       0.00000000
H       -4.73084000       0.21809000       0.00000000
H       -2.25081000       0.13613000       0.00000000
C        3.20306000      -0.31123000       0.00000000
C        5.99962000      -0.40366000       0.00000000
C        3.94222000       0.87661000       0.00000000
C        3.86218000      -1.54529000       0.00000000
C        5.34050000       0.83039000       0.00000000
H        3.43231000       1.83130000       0.00000000
H        5.91233000       1.74934000       0.00000000
C        5.26046000      -1.59150000       0.00000000
H        3.29034000      -2.46423000       0.00000000
H        5.77037000      -2.54619000       0.00000000
C        7.44962000      -0.40366000       0.00000000
C       16.01524000      -1.53631000       0.00000000
C        7.93589000      -1.70792000       0.00000000
S        8.75239000       0.67218000       0.00000000
C        9.33387000      -1.76550000       0.00000000
H        7.29595000      -2.58087000       0.00000000
C        9.94404000      -0.51826000       0.00000000
C       11.33824000      -0.37633000       0.00000000
C       10.10103000      -2.93213000       0.00000000
C       12.12662000      -1.56364000       0.00000000
C       11.50030000      -2.83032000       0.00000000
H        9.62673000      -3.90560000       0.00000000
H       12.08780000      -3.73958000       0.00000000
C       11.96456000       0.89036000       0.00000000
C       13.52083000      -1.42171000       0.00000000
C       14.13099000      -0.17447000       0.00000000
C       13.36383000       0.99216000       0.00000000
H       11.37706000       1.79962000       0.00000000
H       13.83813000       1.96563000       0.00000000
C       15.52898000      -0.23205000       0.00000000
S       14.71247000      -2.61215000       0.00000000
H       16.16891000       0.64089000       0.00000000
C       17.46524000      -1.53631000       0.00000000
C       24.76020000      -1.21990000      -1.68604000
C       17.48085000      -0.45291000      -0.85552000
C       18.67735000      -0.03379000      -1.42417000
H       16.56128000       0.07808000      -1.06401000
C       18.64272000      -2.21069000       0.29002000
C       19.90245000      -0.70639000      -1.16968000
H       18.60636000       0.83969000      -2.04354000
C       19.88510000      -1.82902000      -0.28548000
H       18.53979000      -3.01199000       0.99788000
C       21.13008000      -0.24876000      -1.73257000
C       21.09543000      -2.50728000       0.04692000
C       22.34038000      -0.92711000      -1.40030000
C       22.32304000      -2.04976000      -0.51615000
C       23.58273000      -0.54544000      -1.97587000
C       23.54814000      -2.72244000      -0.26186000
H       23.68561000       0.25593000      -2.68369000
C       24.74460000      -2.30337000      -0.83063000
H       23.61917000      -3.59600000       0.35740000
H       25.66416000      -2.83446000      -0.62230000
C       21.15374000       0.93090000      -2.66563000
S       20.17959000       1.14318000      -4.03433000
C       20.82375000       2.62514000      -4.49251000
C       21.81264000       2.98352000      -3.58938000
C       21.99926000       2.04004000      -2.57280000
H       22.38367000       3.90003000      -3.66020000
H       22.72855000       2.17358000      -1.78419000
C       21.07203000      -3.68658000       0.98049000
S       22.04673000      -3.89809000       2.34882000
C       21.40379000      -5.37912000       2.80871000
C       20.41378000      -5.73862000       1.90600000
C       20.22655000      -4.79577000       0.88888000
H       19.49684000      -4.92988000       0.10076000
H       19.84204000      -6.65471000       1.97639000
C       20.39959000       3.42474000      -5.67823000
H       19.58850000       2.90139000      -6.22648000
H       21.26354000       3.56617000      -6.36052000
H       20.02863000       4.41647000      -5.34535000
C       21.83884000      -6.16762000       3.99827000
H       21.25597000      -7.10939000       4.07882000
H       21.68209000      -5.56704000       4.91820000
H       22.91592000      -6.41747000       3.90314000
C       -6.26812000       2.37109000       0.00000000
H       -6.56812000       3.37109000       0.01000000
H       -6.56812000       1.77109000       0.80000000
H       -6.56812000       1.97109000      -0.90000000
C       26.21020000      -1.21990000      -1.68604000
H       26.51020000      -2.21990000      -1.69604000
H       26.51020000      -0.61990000      -2.48604000
H       26.51020000      -0.81990000      -0.78604000
