105
Properties=species:S:1:pos:R:3 "%%%'L':{'index':0,'type':'FG',R:'index':1,'type':'FG'}%%%"=T pbc="F F F"
C       -0.57156000       2.27866000       0.00000000
C        1.75306000      -0.31123000       0.00000000
C        1.65940000       2.30251000      -0.00000000
C        1.28845000       0.98865000       0.00000000
C       -0.10622000       0.97951000       0.00000000
C       -0.47792000      -0.33381000      -0.00000000
N        0.53085000       3.08576000      -0.00000000
N        0.65003000      -1.11769000      -0.00000000
O        2.68272000       2.98868000      -0.00000000
O       -1.52533000      -0.99533000      -0.00000000
C        0.50321000       4.54391000      -0.00000000
H       -0.54438000       4.91456000      -0.00000000
H        1.01847000       4.92769000      -0.90547000
H        1.01847000       4.92769000       0.90547000
C        0.67502000      -2.57587000      -0.00000000
H        1.72166000      -2.94887000      -0.00000000
H        0.15853000      -2.95844000      -0.90536000
H        0.15853000      -2.95845000       0.90536000
C       -4.81812000       2.37109000       0.00000000
C       -2.02156000       2.27866000       0.00000000
C       -4.07896000       3.55893000       0.00000000
C       -4.15900000       1.13703000       0.00000000
C       -2.68068000       3.51271000       0.00000000
H       -4.58887000       4.51362000       0.00000000
H       -2.10885000       4.43166000       0.00000000
C       -2.76072000       1.09082000       0.00000000
H       -4.73084000       0.21809000       0.00000000
H       -2.25081000       0.13613000       0.00000000
C        3.20306000      -0.31123000       0.00000000
C        5.99962000      -0.40366000       0.00000000
C        3.94222000       0.87661000       0.00000000
C        3.86218000      -1.54529000       0.00000000
C        5.34050000       0.83039000       0.00000000
H        3.43231000       1.83130000       0.00000000
H        5.91233000       1.74934000       0.00000000
C        5.26046000      -1.59150000       0.00000000
H        3.29034000      -2.46423000       0.00000000
H        5.77037000      -2.54619000       0.00000000
C        7.44962000      -0.40366000       0.00000000
C       13.70033000      -0.05253000      -0.10614000
C       13.07971000      -1.31481000      -0.13089000
C        8.20758000      -1.58788000      -0.04814000
S        8.49987000       0.95611000       0.01957000
C        9.87750000       0.01491000      -0.03311000
C        9.56648000      -1.30202000      -0.06519000
H        7.78689000      -2.58401000      -0.06896000
C       11.24199000       0.09016000      -0.05632000
C       11.69628000      -1.18510000      -0.10144000
N       10.67596000      -2.08060000      -0.10821000
S       12.50574000       1.18048000      -0.04847000
H       13.61355000      -2.25430000      -0.16783000
C       10.73857000      -3.53724000      -0.15126000
H       11.79168000      -3.88569000      -0.18086000
H       10.21420000      -3.90553000      -1.05773000
H       10.24783000      -3.95755000       0.75141000
C       15.15033000      -0.05253000      -0.10614000
C       22.44529000       0.26388000      -1.79218000
C       15.16594000       1.03087000      -0.96166000
C       16.36244000       1.44999000      -1.53031000
H       14.24637000       1.56186000      -1.17015000
C       16.32781000      -0.72691000       0.18388000
C       17.58754000       0.77739000      -1.27582000
H       16.29145000       2.32347000      -2.14968000
C       17.57019000      -0.34524000      -0.39162000
H       16.22488000      -1.52821000       0.89174000
C       18.81517000       1.23502000      -1.83871000
C       18.78052000      -1.02350000      -0.05922000
C       20.02547000       0.55667000      -1.50644000
C       20.00813000      -0.56598000      -0.62229000
C       21.26782000       0.93834000      -2.08201000
C       21.23323000      -1.23866000      -0.36800000
H       21.37070000       1.73971000      -2.78983000
C       22.42969000      -0.81959000      -0.93677000
H       21.30426000      -2.11222000       0.25126000
H       23.34925000      -1.35068000      -0.72844000
C       18.83883000       2.41468000      -2.77177000
S       17.86468000       2.62696000      -4.14047000
C       18.50884000       4.10892000      -4.59865000
C       19.49773000       4.46730000      -3.69552000
C       19.68435000       3.52382000      -2.67894000
H       20.06876000       5.38381000      -3.76634000
H       20.41364000       3.65736000      -1.89033000
C       18.75712000      -2.20280000       0.87435000
S       19.73182000      -2.41431000       2.24268000
C       19.08888000      -3.89534000       2.70257000
C       18.09887000      -4.25484000       1.79986000
C       17.91164000      -3.31199000       0.78274000
H       17.18193000      -3.44610000      -0.00538000
H       17.52713000      -5.17093000       1.87025000
C       18.08468000       4.90852000      -5.78437000
H       17.27359000       4.38517000      -6.33262000
H       18.94863000       5.04995000      -6.46666000
H       17.71372000       5.90025000      -5.45149000
C       19.52393000      -4.68384000       3.89213000
H       18.94106000      -5.62561000       3.97268000
H       19.36718000      -4.08326000       4.81206000
H       20.60101000      -4.93369000       3.79700000
C       -6.26812000       2.37109000       0.00000000
H       -6.56812000       3.37109000       0.01000000
H       -6.56812000       1.77109000       0.80000000
H       -6.56812000       1.97109000      -0.90000000
C       23.89529000       0.26388000      -1.79218000
H       24.19529000      -0.73612000      -1.80218000
H       24.19529000       0.86388000      -2.59218000
H       24.19529000       0.66388000      -0.89218000
