78
Properties=species:S:1:pos:R:3 "%%%'L':{'index':0,'type':'FG',R:'index':1,'type':'FG'}%%%"=T pbc="F F F"
C       -0.57156000       2.27866000       0.00000000
C        1.75306000      -0.31123000       0.00000000
C        1.65940000       2.30251000      -0.00000000
C        1.28845000       0.98865000       0.00000000
C       -0.10622000       0.97951000       0.00000000
C       -0.47792000      -0.33381000      -0.00000000
N        0.53085000       3.08576000      -0.00000000
N        0.65003000      -1.11769000      -0.00000000
O        2.68272000       2.98868000      -0.00000000
O       -1.52533000      -0.99533000      -0.00000000
C        0.50321000       4.54391000      -0.00000000
H       -0.54438000       4.91456000      -0.00000000
H        1.01847000       4.92769000      -0.90547000
H        1.01847000       4.92769000       0.90547000
C        0.67502000      -2.57587000      -0.00000000
H        1.72166000      -2.94887000      -0.00000000
H        0.15853000      -2.95844000      -0.90536000
H        0.15853000      -2.95845000       0.90536000
C       -4.81812000       2.37109000       0.00000000
C       -2.02156000       2.27866000       0.00000000
C       -4.07896000       3.55893000       0.00000000
C       -4.15900000       1.13703000       0.00000000
C       -2.68068000       3.51271000       0.00000000
H       -4.58887000       4.51362000       0.00000000
H       -2.10885000       4.43166000       0.00000000
C       -2.76072000       1.09082000       0.00000000
H       -4.73084000       0.21809000       0.00000000
H       -2.25081000       0.13613000       0.00000000
C        3.20306000      -0.31123000       0.00000000
C        5.99962000      -0.40366000       0.00000000
C        3.94222000       0.87661000       0.00000000
C        3.86218000      -1.54529000       0.00000000
C        5.34050000       0.83039000       0.00000000
H        3.43231000       1.83130000       0.00000000
H        5.91233000       1.74934000       0.00000000
C        5.26046000      -1.59150000       0.00000000
H        3.29034000      -2.46423000       0.00000000
H        5.77037000      -2.54619000       0.00000000
C        7.44962000      -0.40366000       0.00000000
C        9.95061000      -0.24885000       0.00000000
C        8.08030000      -1.63948000       0.00000000
C        9.47715000      -1.55302000       0.00000000
H        7.54384000      -2.57893000       0.00000000
H       10.12538000      -2.41914000       0.00000000
S        8.63083000       0.79300000       0.00000000
C       11.40061000      -0.24885000       0.00000000
C       13.90138000      -0.22321000      -0.12945993
C       11.93657482       1.03048333      -0.04254624
C       13.34357249       1.05080627      -0.11545709
H       11.31299182       1.91295787      -0.02059797
S       12.66146692      -1.35588177      -0.05225373
C       14.21126765       2.28611058      -0.17462034
C       13.42930714       3.60687208      -0.14958191
H       14.81188167       2.25937231      -1.10893238
H       14.90564413       2.24726452       0.69358205
C       14.37923268       4.81004310      -0.21253045
H       12.83448262       3.64645638       0.78837626
H       12.74033657       3.65864859      -1.02235133
C       13.59911669       6.12914206      -0.18757012
H       14.97792898       4.77303336      -1.14826234
H       15.07176897       4.76084533       0.65759157
C       14.54941031       7.33136889      -0.25044458
H       13.00046164       6.16669234       0.74817657
H       12.90666229       6.17892275      -1.05776206
C       13.77686159       8.64635191      -0.22582104
H       15.14865923       7.30225883      -1.18556519
H       15.24235508       7.29003372       0.61889646
H       13.09119767       8.72407878      -1.09778673
H       14.48890705       9.49781114      -0.27235266
H       13.18507185       8.71181982       0.71031546
C       -6.26812000       2.37109000       0.00000000
H       -6.56812000       3.37109000       0.01000000
H       -6.56812000       1.77109000       0.80000000
H       -6.56812000       1.97109000      -0.90000000
C       15.35138000      -0.22321000      -0.12945993
H       15.65138000      -1.22321000      -0.13945993
H       15.65138000       0.37679000      -0.92945993
H       15.65138000       0.17679000       0.77054007
