90
Properties=species:S:1:pos:R:3 "%%%'L':{'index':0,'type':'FG',R:'index':1,'type':'FG'}%%%"=T pbc="F F F"
C       -0.57156000       2.27866000       0.00000000
C        1.75306000      -0.31123000       0.00000000
C        1.65940000       2.30251000      -0.00000000
C        1.28845000       0.98865000       0.00000000
C       -0.10622000       0.97951000       0.00000000
C       -0.47792000      -0.33381000      -0.00000000
N        0.53085000       3.08576000      -0.00000000
N        0.65003000      -1.11769000      -0.00000000
O        2.68272000       2.98868000      -0.00000000
O       -1.52533000      -0.99533000      -0.00000000
C        0.50321000       4.54391000      -0.00000000
H       -0.54438000       4.91456000      -0.00000000
H        1.01847000       4.92769000      -0.90547000
H        1.01847000       4.92769000       0.90547000
C        0.67502000      -2.57587000      -0.00000000
H        1.72166000      -2.94887000      -0.00000000
H        0.15853000      -2.95844000      -0.90536000
H        0.15853000      -2.95845000       0.90536000
C       -4.81812000       2.37109000       0.00000000
C       -2.02156000       2.27866000       0.00000000
C       -4.07896000       3.55893000       0.00000000
C       -4.15900000       1.13703000       0.00000000
C       -2.68068000       3.51271000       0.00000000
H       -4.58887000       4.51362000       0.00000000
H       -2.10885000       4.43166000       0.00000000
C       -2.76072000       1.09082000       0.00000000
H       -4.73084000       0.21809000       0.00000000
H       -2.25081000       0.13613000       0.00000000
C        3.20306000      -0.31123000       0.00000000
C        5.99962000      -0.40366000       0.00000000
C        3.94222000       0.87661000       0.00000000
C        3.86218000      -1.54529000       0.00000000
C        5.34050000       0.83039000       0.00000000
H        3.43231000       1.83130000       0.00000000
H        5.91233000       1.74934000       0.00000000
C        5.26046000      -1.59150000       0.00000000
H        3.29034000      -2.46423000       0.00000000
H        5.77037000      -2.54619000       0.00000000
C        7.44962000      -0.40366000       0.00000000
C       16.01524000      -1.53631000       0.00000000
C        7.93589000      -1.70792000       0.00000000
S        8.75239000       0.67218000       0.00000000
C        9.33387000      -1.76550000       0.00000000
H        7.29595000      -2.58087000       0.00000000
C        9.94404000      -0.51826000       0.00000000
C       11.33824000      -0.37633000       0.00000000
C       10.10103000      -2.93213000       0.00000000
C       12.12662000      -1.56364000       0.00000000
C       11.50030000      -2.83032000       0.00000000
H        9.62673000      -3.90560000       0.00000000
H       12.08780000      -3.73958000       0.00000000
C       11.96456000       0.89036000       0.00000000
C       13.52083000      -1.42171000       0.00000000
C       14.13099000      -0.17447000       0.00000000
C       13.36383000       0.99216000       0.00000000
H       11.37706000       1.79962000       0.00000000
H       13.83813000       1.96563000       0.00000000
C       15.52898000      -0.23205000       0.00000000
S       14.71247000      -2.61215000       0.00000000
H       16.16891000       0.64089000       0.00000000
C       17.46524000      -1.53631000       0.00000000
C       26.03086000      -2.66896000       0.00000000
C       17.95151000      -2.84057000       0.00000000
S       18.76801000      -0.46047000       0.00000000
C       19.34949000      -2.89815000       0.00000000
H       17.31157000      -3.71352000       0.00000000
C       19.95966000      -1.65091000       0.00000000
C       21.35386000      -1.50898000       0.00000000
C       20.11665000      -4.06478000       0.00000000
C       22.14224000      -2.69629000       0.00000000
C       21.51592000      -3.96297000       0.00000000
H       19.64235000      -5.03825000       0.00000000
H       22.10342000      -4.87223000       0.00000000
C       21.98018000      -0.24229000       0.00000000
C       23.53645000      -2.55436000       0.00000000
C       24.14661000      -1.30712000       0.00000000
C       23.37945000      -0.14049000       0.00000000
H       21.39268000       0.66697000       0.00000000
H       23.85375000       0.83298000       0.00000000
C       25.54460000      -1.36470000       0.00000000
S       24.72809000      -3.74480000       0.00000000
H       26.18453000      -0.49176000       0.00000000
C       -6.26812000       2.37109000       0.00000000
H       -6.56812000       3.37109000       0.01000000
H       -6.56812000       1.77109000       0.80000000
H       -6.56812000       1.97109000      -0.90000000
C       27.48086000      -2.66896000       0.00000000
H       27.78086000      -3.66896000      -0.01000000
H       27.78086000      -2.06896000      -0.80000000
H       27.78086000      -2.26896000       0.90000000
