70
Properties=species:S:1:pos:R:3 "%%%'L':{'index':0,'type':'FG',R:'index':1,'type':'FG'}%%%"=T pbc="F F F"
C       -0.57156000       2.27866000       0.00000000
C        1.75306000      -0.31123000       0.00000000
C        1.65940000       2.30251000      -0.00000000
C        1.28845000       0.98865000       0.00000000
C       -0.10622000       0.97951000       0.00000000
C       -0.47792000      -0.33381000      -0.00000000
N        0.53085000       3.08576000      -0.00000000
N        0.65003000      -1.11769000      -0.00000000
O        2.68272000       2.98868000      -0.00000000
O       -1.52533000      -0.99533000      -0.00000000
C        0.50321000       4.54391000      -0.00000000
H       -0.54438000       4.91456000      -0.00000000
H        1.01847000       4.92769000      -0.90547000
H        1.01847000       4.92769000       0.90547000
C        0.67502000      -2.57587000      -0.00000000
H        1.72166000      -2.94887000      -0.00000000
H        0.15853000      -2.95844000      -0.90536000
H        0.15853000      -2.95845000       0.90536000
C       -4.81812000       2.37109000       0.00000000
C       -2.02156000       2.27866000       0.00000000
C       -4.07896000       3.55893000       0.00000000
C       -4.15900000       1.13703000       0.00000000
C       -2.68068000       3.51271000       0.00000000
H       -4.58887000       4.51362000       0.00000000
H       -2.10885000       4.43166000       0.00000000
C       -2.76072000       1.09082000       0.00000000
H       -4.73084000       0.21809000       0.00000000
H       -2.25081000       0.13613000       0.00000000
C        3.20306000      -0.31123000       0.00000000
C        5.99962000      -0.40366000       0.00000000
C        3.94222000       0.87661000       0.00000000
C        3.86218000      -1.54529000       0.00000000
C        5.34050000       0.83039000       0.00000000
H        3.43231000       1.83130000       0.00000000
H        5.91233000       1.74934000       0.00000000
C        5.26046000      -1.59150000       0.00000000
H        3.29034000      -2.46423000       0.00000000
H        5.77037000      -2.54619000       0.00000000
C        7.44962000      -0.40366000       0.00000000
C        9.95061000      -0.24885000       0.00000000
C        8.08030000      -1.63948000       0.00000000
C        9.47715000      -1.55302000       0.00000000
H        7.54384000      -2.57893000       0.00000000
H       10.12538000      -2.41914000       0.00000000
S        8.63083000       0.79300000       0.00000000
C       11.40061000      -0.24885000       0.00000000
C       17.65132000       0.10228000      -0.09991858
C       16.89487675       1.28638018      -0.05276485
C       12.02281522       1.01207632       0.02509699
S       12.59480042      -1.48166641      -0.05625296
C       13.85971587      -0.39270689      -0.04737365
C       13.40490071       0.88033028      -0.00298195
H       11.49451088       1.95424411       0.06132603
C       15.22405101      -0.31466766      -0.06914271
C       15.53439993       1.00267199      -0.03693784
N       14.42132825       1.77776724       0.00479559
S       16.60059765      -1.25598610      -0.12026794
H       17.32143653       2.27916913      -0.03188728
C       14.32236075       3.23138440       0.04809494
H       15.33036573       3.69534269       0.04362428
H       13.79203073       3.52437164       0.97172958
H       13.75662624       3.60791191      -0.83711694
C       -6.26812000       2.37109000       0.00000000
H       -6.56812000       3.37109000       0.01000000
H       -6.56812000       1.77109000       0.80000000
H       -6.56812000       1.97109000      -0.90000000
C       19.10132000       0.10228000      -0.09991858
H       19.40132000      -0.89772000      -0.10991858
H       19.40132000       0.70228000      -0.89991858
H       19.40132000       0.50228000       0.80008142
