75
Properties=species:S:1:pos:R:3 "%%%'L':{'index':0,'type':'FG',R:'index':1,'type':'FG'}%%%"=T pbc="F F F"
C       -0.57156000       2.27866000       0.00000000
C        1.75306000      -0.31123000       0.00000000
C        1.65940000       2.30251000      -0.00000000
C        1.28845000       0.98865000       0.00000000
C       -0.10622000       0.97951000       0.00000000
C       -0.47792000      -0.33381000      -0.00000000
N        0.53085000       3.08576000      -0.00000000
N        0.65003000      -1.11769000      -0.00000000
O        2.68272000       2.98868000      -0.00000000
O       -1.52533000      -0.99533000      -0.00000000
C        0.50321000       4.54391000      -0.00000000
H       -0.54438000       4.91456000      -0.00000000
H        1.01847000       4.92769000      -0.90547000
H        1.01847000       4.92769000       0.90547000
C        0.67502000      -2.57587000      -0.00000000
H        1.72166000      -2.94887000      -0.00000000
H        0.15853000      -2.95844000      -0.90536000
H        0.15853000      -2.95845000       0.90536000
C       -4.81812000       2.37109000       0.00000000
C       -2.02156000       2.27866000       0.00000000
C       -4.07896000       3.55893000       0.00000000
C       -4.15900000       1.13703000       0.00000000
C       -2.68068000       3.51271000       0.00000000
H       -4.58887000       4.51362000       0.00000000
H       -2.10885000       4.43166000       0.00000000
C       -2.76072000       1.09082000       0.00000000
H       -4.73084000       0.21809000       0.00000000
H       -2.25081000       0.13613000       0.00000000
C        3.20306000      -0.31123000       0.00000000
C        5.99962000      -0.40366000       0.00000000
C        3.94222000       0.87661000       0.00000000
C        3.86218000      -1.54529000       0.00000000
C        5.34050000       0.83039000       0.00000000
H        3.43231000       1.83130000       0.00000000
H        5.91233000       1.74934000       0.00000000
C        5.26046000      -1.59150000       0.00000000
H        3.29034000      -2.46423000       0.00000000
H        5.77037000      -2.54619000       0.00000000
C        7.44962000      -0.40366000       0.00000000
C        9.95061000      -0.24885000       0.00000000
C        8.08030000      -1.63948000       0.00000000
C        9.47715000      -1.55302000       0.00000000
H        7.54384000      -2.57893000       0.00000000
H       10.12538000      -2.41914000       0.00000000
S        8.63083000       0.79300000       0.00000000
C       11.40061000      -0.24885000       0.00000000
C       19.96623000      -1.38150000      -0.01959688
C       12.20914504       0.88400635      -0.00111251
S       12.37899716      -1.62614213      -0.00298055
C       13.57404557       0.57626421      -0.00431089
H       11.81807730       1.89314283       0.00035157
C       13.83908857      -0.78650480      -0.00570687
C       15.14848643      -1.28588755      -0.00889659
C       14.61804725       1.50323825      -0.00606604
C       16.21835357      -0.34446245      -0.01070029
C       15.94276804       1.04127289      -0.00926736
H       14.41305206       2.56637507      -0.00498091
H       16.74639374       1.76645475      -0.01061148
C       15.42406936      -2.67163254      -0.01032952
C       17.52776108      -0.84384780      -0.01389004
C       17.79279443      -2.20661421      -0.01528599
C       16.74879275      -3.13358825      -0.01353084
H       14.62044366      -3.39681441      -0.00898541
H       16.95378794      -4.19672507      -0.01461597
C       19.15770462      -2.51435895      -0.01848439
S       18.98784284      -0.00420787      -0.01661634
H       19.54876530      -3.52348318      -0.01994846
C       -6.26812000       2.37109000       0.00000000
H       -6.56812000       3.37109000       0.01000000
H       -6.56812000       1.77109000       0.80000000
H       -6.56812000       1.97109000      -0.90000000
C       21.41623000      -1.38150000      -0.01959688
H       21.71623000      -2.38150000      -0.02959688
H       21.71623000      -0.78150000      -0.81959688
H       21.71623000      -0.98150000       0.88040312
