94
Properties=species:S:1:pos:R:3 "%%%'L':{'index':0,'type':'FG',R:'index':1,'type':'FG'}%%%"=T pbc="F F F"
C       -0.57156000       2.27866000       0.00000000
C        1.75306000      -0.31123000       0.00000000
C        1.65940000       2.30251000      -0.00000000
C        1.28845000       0.98865000       0.00000000
C       -0.10622000       0.97951000       0.00000000
C       -0.47792000      -0.33381000      -0.00000000
N        0.53085000       3.08576000      -0.00000000
N        0.65003000      -1.11769000      -0.00000000
O        2.68272000       2.98868000      -0.00000000
O       -1.52533000      -0.99533000      -0.00000000
C        0.50321000       4.54391000      -0.00000000
H       -0.54438000       4.91456000      -0.00000000
H        1.01847000       4.92769000      -0.90547000
H        1.01847000       4.92769000       0.90547000
C        0.67502000      -2.57587000      -0.00000000
H        1.72166000      -2.94887000      -0.00000000
H        0.15853000      -2.95844000      -0.90536000
H        0.15853000      -2.95845000       0.90536000
C       -4.51330000       2.25054000      -0.49118353
C       -2.02156000       2.27866000       0.00000000
C       -3.95952538       3.51703172      -0.39777905
C       -2.59330204       3.53279410      -0.11184136
S       -3.25948860       1.15084498      -0.23745321
O       -1.94287288       4.71462720       0.03091053
O       -4.62669838       4.68309628      -0.55769650
C       -3.90544676       5.85655044      -0.74313992
C       -2.68082362       5.88512151       0.19920726
H       -2.04035462       6.77226243       0.02443788
H       -3.05444163       5.93411568       1.24598863
H       -4.55855046       6.74155320      -0.58132910
H       -3.53225424       5.86676534      -1.79035252
C        3.20306000      -0.31123000       0.00000000
C        5.69480000      -0.28311000       0.49157000
C        3.77591000      -1.56543000       0.12367000
C        5.14845000      -1.55000000       0.37782000
S        4.43722000       0.81679000       0.24141000
O        5.82775000      -2.71672000       0.49254000
O        3.12129000      -2.74704000       0.01818000
C        3.74134000      -3.91111000       0.46344000
C        5.23235000      -3.89703000       0.05651000
H        5.77604000      -4.77607000       0.46126000
H        5.28513000      -3.93046000      -1.05384000
H        3.21628000      -4.80454000       0.06566000
H        3.68918000      -3.93690000       1.57402000
C        7.14480000      -0.28311000       0.49157000
C        9.94136000      -0.37554000       0.49157000
C        7.88396000       0.90473000       0.49157000
C        7.80392000      -1.51717000       0.49157000
C        9.28224000       0.85851000       0.49157000
H        7.37405000       1.85942000       0.49157000
H        9.85407000       1.77746000       0.49157000
C        9.20220000      -1.56338000       0.49157000
H        7.23208000      -2.43611000       0.49157000
H        9.71211000      -2.51807000       0.49157000
C       11.39136000      -0.37554000       0.49157000
C       13.89707000      -0.29511000       0.38031000
C       11.98090000      -1.63147000       0.48483000
C       13.38632000      -1.58447000       0.42240000
H       11.40408000      -2.54577000       0.52411000
S       12.60800000       0.78324000       0.42047000
O       14.19900000      -2.66887000       0.40326000
C       13.76487000      -3.97858000       0.44248000
C       14.96534000      -4.91508000       0.40405000
H       13.11179000      -4.18439000      -0.43429000
H       13.19163000      -4.15650000       1.37914000
O       14.50615000      -6.24890000       0.44498000
H       15.60466000      -4.69077000       1.28893000
H       15.52407000      -4.71906000      -0.54012000
C       15.61025000      -7.12742000       0.40927000
C       15.10243000      -8.56315000       0.45597000
H       16.27022000      -6.96762000       1.29302000
H       16.18710000      -6.99747000      -0.53541000
O       16.20652000      -9.44170000       0.42025000
H       14.44249000      -8.72315000      -0.42775000
H       14.52555000      -8.69288000       1.40068000
C       15.74746000     -10.77567000       0.46459000
C       16.94742000     -11.71396000       0.42493000
H       15.10547000     -11.00130000      -0.41803000
H       15.19060000     -10.96975000       1.41028000
O       16.48903000     -13.04797000       0.46938000
H       17.58948000     -11.48795000       1.30755000
H       17.50431000     -11.51960000      -0.52082000
C       17.59465000     -13.92102000       0.43309000
H       17.21695000     -14.96345000       0.46888000
H       18.25037000     -13.78201000       1.32133000
H       18.16472000     -13.81405000      -0.51657000
C       -5.96330000       2.25054000      -0.49118353
H       -6.26330000       3.25054000      -0.48118353
H       -6.26330000       1.65054000       0.30881647
H       -6.26330000       1.85054000      -1.39118353
C       15.34707000      -0.29511000       0.38031000
H       15.64707000      -1.29511000       0.37031000
H       15.64707000       0.30489000      -0.41969000
H       15.64707000       0.10489000       1.28031000
