72
Properties=species:S:1:pos:R:3 "%%%'L':{'index':0,'type':'FG',R:'index':1,'type':'FG'}%%%"=T pbc="F F F"
C       -0.57156000       2.27866000       0.00000000
C        1.75306000      -0.31123000       0.00000000
C        1.65940000       2.30251000      -0.00000000
C        1.28845000       0.98865000       0.00000000
C       -0.10622000       0.97951000       0.00000000
C       -0.47792000      -0.33381000      -0.00000000
N        0.53085000       3.08576000      -0.00000000
N        0.65003000      -1.11769000      -0.00000000
O        2.68272000       2.98868000      -0.00000000
O       -1.52533000      -0.99533000      -0.00000000
C        0.50321000       4.54391000      -0.00000000
H       -0.54438000       4.91456000      -0.00000000
H        1.01847000       4.92769000      -0.90547000
H        1.01847000       4.92769000       0.90547000
C        0.67502000      -2.57587000      -0.00000000
H        1.72166000      -2.94887000      -0.00000000
H        0.15853000      -2.95844000      -0.90536000
H        0.15853000      -2.95845000       0.90536000
C       -4.51330000       2.25054000      -0.49118353
C       -2.02156000       2.27866000       0.00000000
C       -3.95952538       3.51703172      -0.39777905
C       -2.59330204       3.53279410      -0.11184136
S       -3.25948860       1.15084498      -0.23745321
O       -1.94287288       4.71462720       0.03091053
O       -4.62669838       4.68309628      -0.55769650
C       -3.90544676       5.85655044      -0.74313992
C       -2.68082362       5.88512151       0.19920726
H       -2.04035462       6.77226243       0.02443788
H       -3.05444163       5.93411568       1.24598863
H       -4.55855046       6.74155320      -0.58132910
H       -3.53225424       5.86676534      -1.79035252
C        3.20306000      -0.31123000       0.00000000
C        5.69480000      -0.28311000       0.49157000
C        3.77591000      -1.56543000       0.12367000
C        5.14845000      -1.55000000       0.37782000
S        4.43722000       0.81679000       0.24141000
O        5.82775000      -2.71672000       0.49254000
O        3.12129000      -2.74704000       0.01818000
C        3.74134000      -3.91111000       0.46344000
C        5.23235000      -3.89703000       0.05651000
H        5.77604000      -4.77607000       0.46126000
H        5.28513000      -3.93046000      -1.05384000
H        3.21628000      -4.80454000       0.06566000
H        3.68918000      -3.93690000       1.57402000
C        7.14480000      -0.28311000       0.49157000
C       11.64216000       0.52807000       0.50550223
C        7.80683947       0.94942079       0.49482574
C        9.18386302       0.76701065       0.49862530
C        9.60308761      -0.52205415       0.49844690
C       10.98011704      -0.70445143       0.50224649
H        7.31380823       1.91202390       0.49443655
H       11.47313890      -1.66705803       0.50263565
S        8.28306124      -1.55486767       0.49349743
S       10.50389527       1.79983704       0.50357480
C       13.09216000       0.52807000       0.50550223
C       15.88872000       0.43564000       0.50550223
C       13.83132000       1.71591000       0.50550223
C       13.75128000      -0.70599000       0.50550223
C       15.22960000       1.66969000       0.50550223
H       13.32141000       2.67060000       0.50550223
H       15.80143000       2.58864000       0.50550223
C       15.14956000      -0.75220000       0.50550223
H       13.17944000      -1.62493000       0.50550223
H       15.65947000      -1.70689000       0.50550223
C       -5.96330000       2.25054000      -0.49118353
H       -6.26330000       3.25054000      -0.48118353
H       -6.26330000       1.65054000       0.30881647
H       -6.26330000       1.85054000      -1.39118353
C       17.33872000       0.43564000       0.50550223
H       17.63872000      -0.56436000       0.49550223
H       17.63872000       1.03564000      -0.29449777
H       17.63872000       0.83564000       1.40550223
