82
Properties=species:S:1:pos:R:3 "%%%'L':{'index':0,'type':'FG',R:'index':1,'type':'FG'}%%%"=T pbc="F F F"
C       -0.57156000       2.27866000       0.00000000
C        1.75306000      -0.31123000       0.00000000
C        1.65940000       2.30251000      -0.00000000
C        1.28845000       0.98865000       0.00000000
C       -0.10622000       0.97951000       0.00000000
C       -0.47792000      -0.33381000      -0.00000000
N        0.53085000       3.08576000      -0.00000000
N        0.65003000      -1.11769000      -0.00000000
O        2.68272000       2.98868000      -0.00000000
O       -1.52533000      -0.99533000      -0.00000000
C        0.50321000       4.54391000      -0.00000000
H       -0.54438000       4.91456000      -0.00000000
H        1.01847000       4.92769000      -0.90547000
H        1.01847000       4.92769000       0.90547000
C        0.67502000      -2.57587000      -0.00000000
H        1.72166000      -2.94887000      -0.00000000
H        0.15853000      -2.95844000      -0.90536000
H        0.15853000      -2.95845000       0.90536000
C       -4.51330000       2.25054000      -0.49118353
C       -2.02156000       2.27866000       0.00000000
C       -3.95952538       3.51703172      -0.39777905
C       -2.59330204       3.53279410      -0.11184136
S       -3.25948860       1.15084498      -0.23745321
O       -1.94287288       4.71462720       0.03091053
O       -4.62669838       4.68309628      -0.55769650
C       -3.90544676       5.85655044      -0.74313992
C       -2.68082362       5.88512151       0.19920726
H       -2.04035462       6.77226243       0.02443788
H       -3.05444163       5.93411568       1.24598863
H       -4.55855046       6.74155320      -0.58132910
H       -3.53225424       5.86676534      -1.79035252
C        3.20306000      -0.31123000       0.00000000
C        5.69480000      -0.28311000       0.49157000
C        3.77591000      -1.56543000       0.12367000
C        5.14845000      -1.55000000       0.37782000
S        4.43722000       0.81679000       0.24141000
O        5.82775000      -2.71672000       0.49254000
O        3.12129000      -2.74704000       0.01818000
C        3.74134000      -3.91111000       0.46344000
C        5.23235000      -3.89703000       0.05651000
H        5.77604000      -4.77607000       0.46126000
H        5.28513000      -3.93046000      -1.05384000
H        3.21628000      -4.80454000       0.06566000
H        3.68918000      -3.93690000       1.57402000
C        7.14480000      -0.28311000       0.49157000
C       13.39551000       0.06802000       0.39165142
C       12.63906675       1.25212018       0.43880515
C        7.76700522       0.97781632       0.51666699
S        8.33899042      -1.51592641       0.43531704
C        9.60390587      -0.42696689       0.44419635
C        9.14909071       0.84607028       0.48858805
H        7.23870088       1.91998411       0.55289603
C       10.96824101      -0.34892766       0.42242729
C       11.27858993       0.96841199       0.45463216
N       10.16551825       1.74350724       0.49636559
S       12.34478765      -1.29024610       0.37130206
H       13.06562653       2.24490913       0.45968272
C       10.06655075       3.19712440       0.53966494
H       11.07455573       3.66108269       0.53519428
H        9.53622073       3.49011164       1.46329958
H        9.50081624       3.57365191      -0.34554694
C       14.84551000       0.06802000       0.39165142
C       17.33725000       0.09614000       0.88322142
C       15.41836000      -1.18618000       0.51532142
C       16.79090000      -1.17075000       0.76947142
S       16.07967000       1.19604000       0.63306142
O       17.47020000      -2.33747000       0.88419142
O       14.76374000      -2.36779000       0.40983142
C       15.38379000      -3.53186000       0.85509142
C       16.87480000      -3.51778000       0.44816142
H       17.41849000      -4.39682000       0.85291142
H       16.92758000      -3.55121000      -0.66218858
H       14.85873000      -4.42529000       0.45731142
H       15.33163000      -3.55765000       1.96567142
C       -5.96330000       2.25054000      -0.49118353
H       -6.26330000       3.25054000      -0.48118353
H       -6.26330000       1.65054000       0.30881647
H       -6.26330000       1.85054000      -1.39118353
C       18.78725000       0.09614000       0.88322142
H       19.08725000      -0.90386000       0.87322142
H       19.08725000       0.69614000       0.08322142
H       19.08725000       0.49614000       1.78322142
