76
Properties=species:S:1:pos:R:3 "%%%'L':{'index':0,'type':'FG',R:'index':1,'type':'FG'}%%%"=T pbc="F F F"
C       -0.57156000       2.27866000       0.00000000
C        1.75306000      -0.31123000       0.00000000
C        1.65940000       2.30251000      -0.00000000
C        1.28845000       0.98865000       0.00000000
C       -0.10622000       0.97951000       0.00000000
C       -0.47792000      -0.33381000      -0.00000000
N        0.53085000       3.08576000      -0.00000000
N        0.65003000      -1.11769000      -0.00000000
O        2.68272000       2.98868000      -0.00000000
O       -1.52533000      -0.99533000      -0.00000000
C        0.50321000       4.54391000      -0.00000000
H       -0.54438000       4.91456000      -0.00000000
H        1.01847000       4.92769000      -0.90547000
H        1.01847000       4.92769000       0.90547000
C        0.67502000      -2.57587000      -0.00000000
H        1.72166000      -2.94887000      -0.00000000
H        0.15853000      -2.95844000      -0.90536000
H        0.15853000      -2.95845000       0.90536000
C       -4.51330000       2.25054000      -0.49118353
C       -2.02156000       2.27866000       0.00000000
C       -3.95952538       3.51703172      -0.39777905
C       -2.59330204       3.53279410      -0.11184136
S       -3.25948860       1.15084498      -0.23745321
O       -1.94287288       4.71462720       0.03091053
O       -4.62669838       4.68309628      -0.55769650
C       -3.90544676       5.85655044      -0.74313992
C       -2.68082362       5.88512151       0.19920726
H       -2.04035462       6.77226243       0.02443788
H       -3.05444163       5.93411568       1.24598863
H       -4.55855046       6.74155320      -0.58132910
H       -3.53225424       5.86676534      -1.79035252
C        3.20306000      -0.31123000       0.00000000
C        5.69480000      -0.28311000       0.49157000
C        3.77591000      -1.56543000       0.12367000
C        5.14845000      -1.55000000       0.37782000
S        4.43722000       0.81679000       0.24141000
O        5.82775000      -2.71672000       0.49254000
O        3.12129000      -2.74704000       0.01818000
C        3.74134000      -3.91111000       0.46344000
C        5.23235000      -3.89703000       0.05651000
H        5.77604000      -4.77607000       0.46126000
H        5.28513000      -3.93046000      -1.05384000
H        3.21628000      -4.80454000       0.06566000
H        3.68918000      -3.93690000       1.57402000
C        7.14480000      -0.28311000       0.49157000
C        9.64579000      -0.12830000       0.49426665
C        7.61826817       1.02086204       0.49225002
C        9.01511764       1.10733060       0.49375615
H        6.97005291       1.88684322       0.49167159
H        9.55159217       2.04664518       0.49445509
S        8.46456210      -1.32478999       0.49284362
C       11.09579000      -0.12830000       0.49426665
C       17.34650000       0.22283000       0.38812665
C       16.72588000      -1.03945000       0.36337665
C       11.85375000      -1.31252000       0.44612665
S       12.14604000       1.23147000       0.51383665
C       13.52367000       0.29027000       0.46115665
C       13.21265000      -1.02666000       0.42907665
H       11.43306000      -2.30865000       0.42530665
C       14.88816000       0.36552000       0.43794665
C       15.34245000      -0.90974000       0.39282665
N       14.32213000      -1.80524000       0.38605665
S       16.15191000       1.45584000       0.44579665
H       17.25972000      -1.97894000       0.32643665
C       14.38474000      -3.26188000       0.34300665
H       15.43785000      -3.61033000       0.31340665
H       13.86037000      -3.63017000      -0.56346335
H       13.89400000      -3.68219000       1.24567665
C       -5.96330000       2.25054000      -0.49118353
H       -6.26330000       3.25054000      -0.48118353
H       -6.26330000       1.65054000       0.30881647
H       -6.26330000       1.85054000      -1.39118353
C       18.79650000       0.22283000       0.38812665
H       19.09650000      -0.77717000       0.37812665
H       19.09650000       0.82283000      -0.41187335
H       19.09650000       0.62283000       1.28812665
