87
Properties=species:S:1:pos:R:3 "%%%'L':{'index':0,'type':'FG',R:'index':1,'type':'FG'}%%%"=T pbc="F F F"
C       -0.57156000       2.27866000       0.00000000
C        1.75306000      -0.31123000       0.00000000
C        1.65940000       2.30251000      -0.00000000
C        1.28845000       0.98865000       0.00000000
C       -0.10622000       0.97951000       0.00000000
C       -0.47792000      -0.33381000      -0.00000000
N        0.53085000       3.08576000      -0.00000000
N        0.65003000      -1.11769000      -0.00000000
O        2.68272000       2.98868000      -0.00000000
O       -1.52533000      -0.99533000      -0.00000000
C        0.50321000       4.54391000      -0.00000000
H       -0.54438000       4.91456000      -0.00000000
H        1.01847000       4.92769000      -0.90547000
H        1.01847000       4.92769000       0.90547000
C        0.67502000      -2.57587000      -0.00000000
H        1.72166000      -2.94887000      -0.00000000
H        0.15853000      -2.95844000      -0.90536000
H        0.15853000      -2.95845000       0.90536000
C       -4.51330000       2.25054000      -0.49118353
C       -2.02156000       2.27866000       0.00000000
C       -3.95952538       3.51703172      -0.39777905
C       -2.59330204       3.53279410      -0.11184136
S       -3.25948860       1.15084498      -0.23745321
O       -1.94287288       4.71462720       0.03091053
O       -4.62669838       4.68309628      -0.55769650
C       -3.90544676       5.85655044      -0.74313992
C       -2.68082362       5.88512151       0.19920726
H       -2.04035462       6.77226243       0.02443788
H       -3.05444163       5.93411568       1.24598863
H       -4.55855046       6.74155320      -0.58132910
H       -3.53225424       5.86676534      -1.79035252
C        3.20306000      -0.31123000       0.00000000
C        5.69480000      -0.28311000       0.49157000
C        3.77591000      -1.56543000       0.12367000
C        5.14845000      -1.55000000       0.37782000
S        4.43722000       0.81679000       0.24141000
O        5.82775000      -2.71672000       0.49254000
O        3.12129000      -2.74704000       0.01818000
C        3.74134000      -3.91111000       0.46344000
C        5.23235000      -3.89703000       0.05651000
H        5.77604000      -4.77607000       0.46126000
H        5.28513000      -3.93046000      -1.05384000
H        3.21628000      -4.80454000       0.06566000
H        3.68918000      -3.93690000       1.57402000
C        7.14480000      -0.28311000       0.49157000
C       11.64216000       0.52807000       0.50550223
C        7.80683947       0.94942079       0.49482574
C        9.18386302       0.76701065       0.49862530
C        9.60308761      -0.52205415       0.49844690
C       10.98011704      -0.70445143       0.50224649
H        7.31380823       1.91202390       0.49443655
H       11.47313890      -1.66705803       0.50263565
S        8.28306124      -1.55486767       0.49349743
S       10.50389527       1.79983704       0.50357480
C       13.09216000       0.52807000       0.50550223
C       15.59293000       0.55371000       0.37604230
C       13.62812482       1.80740333       0.46295599
C       15.03512249       1.82772627       0.39004514
H       13.00454182       2.68987787       0.48490426
S       14.35301692      -0.57896177       0.45324850
C       15.90281765       3.06303058       0.33088189
C       15.12085714       4.38379208       0.35592032
H       16.50343167       3.03629231      -0.60343015
H       16.59719413       3.02418452       1.19908428
C       16.07078268       5.58696310       0.29297178
H       14.52603262       4.42337638       1.29387849
H       14.43188657       4.43556859      -0.51684910
C       15.29066669       6.90606206       0.31793211
H       16.66947898       5.54995336      -0.64276011
H       16.76331897       5.53776533       1.16309380
C       16.24096031       8.10828889       0.25505765
H       14.69201164       6.94361234       1.25367880
H       14.59821229       6.95584275      -0.55225983
C       15.46841159       9.42327191       0.27968119
H       16.84020923       8.07917883      -0.68006296
H       16.93390508       8.06695372       1.12439869
H       14.78274767       9.50099878      -0.59228450
H       16.18045705      10.27473114       0.23314957
H       14.87662185       9.48873982       1.21581769
C       -5.96330000       2.25054000      -0.49118353
H       -6.26330000       3.25054000      -0.48118353
H       -6.26330000       1.65054000       0.30881647
H       -6.26330000       1.85054000      -1.39118353
C       17.04293000       0.55371000       0.37604230
H       17.34293000      -0.44629000       0.36604230
H       17.34293000       1.15371000      -0.42395770
H       17.34293000       0.95371000       1.27604230
