85
Properties=species:S:1:pos:R:3 "%%%'L':{'index':0,'type':'FG',R:'index':1,'type':'FG'}%%%"=T pbc="F F F"
C       -0.57156000       2.27866000       0.00000000
C        1.75306000      -0.31123000       0.00000000
C        1.65940000       2.30251000      -0.00000000
C        1.28845000       0.98865000       0.00000000
C       -0.10622000       0.97951000       0.00000000
C       -0.47792000      -0.33381000      -0.00000000
N        0.53085000       3.08576000      -0.00000000
N        0.65003000      -1.11769000      -0.00000000
O        2.68272000       2.98868000      -0.00000000
O       -1.52533000      -0.99533000      -0.00000000
C        0.50321000       4.54391000      -0.00000000
H       -0.54438000       4.91456000      -0.00000000
H        1.01847000       4.92769000      -0.90547000
H        1.01847000       4.92769000       0.90547000
C        0.67502000      -2.57587000      -0.00000000
H        1.72166000      -2.94887000      -0.00000000
H        0.15853000      -2.95844000      -0.90536000
H        0.15853000      -2.95845000       0.90536000
C       -4.52255000       2.12385000       0.00269665
C       -2.02156000       2.27866000       0.00000000
C       -4.04908183       3.42782204       0.00201663
C       -2.65223236       3.51429060       0.00051050
H       -4.69729709       4.29380322       0.00259505
H       -2.11575783       4.45360518      -0.00018844
S       -3.20278790       1.08217001       0.00142303
C        3.20306000      -0.31123000       0.00000000
C        5.70405000      -0.15642000       0.00000000
C        3.83374000      -1.54705000       0.00000000
C        5.23059000      -1.46059000       0.00000000
H        3.29728000      -2.48650000       0.00000000
H        5.87882000      -2.32671000       0.00000000
S        4.38427000       0.88543000       0.00000000
C        7.15405000      -0.15642000       0.00000000
C        9.64579000      -0.12830000       0.49195647
C        7.69930422       1.11043668       0.10209846
C        9.06553358       1.12562980       0.38846232
S        8.41538833      -1.25618573       0.24658703
O        9.70803676       2.30680228       0.53935836
O        7.02418975       2.27731120      -0.05008973
C        7.73740556       3.46182357      -0.22742979
C        8.96228106       3.46638791       0.71539846
H        9.59665539       4.36371573       0.54677744
H        8.58886630       3.47700417       1.76242606
H        7.07842011       4.33675227      -0.05978640
H        8.10999468       3.51042008      -1.27448832
C       11.09579000      -0.12830000       0.49195647
C       13.60150000      -0.04787000       0.38069647
C       11.68533000      -1.38423000       0.48521647
C       13.09075000      -1.33723000       0.42278647
H       11.10851000      -2.29853000       0.52449647
S       12.31243000       1.03048000       0.42085647
O       13.90343000      -2.42163000       0.40364647
C       13.46930000      -3.73134000       0.44286647
C       14.66977000      -4.66784000       0.40443647
H       12.81622000      -3.93715000      -0.43390353
H       12.89606000      -3.90926000       1.37952647
O       14.21058000      -6.00166000       0.44536647
H       15.30909000      -4.44353000       1.28931647
H       15.22850000      -4.47182000      -0.53973353
C       15.31468000      -6.88018000       0.40965647
C       14.80686000      -8.31591000       0.45635647
H       15.97465000      -6.72038000       1.29340647
H       15.89153000      -6.75023000      -0.53502353
O       15.91095000      -9.19446000       0.42063647
H       14.14692000      -8.47591000      -0.42736353
H       14.22998000      -8.44564000       1.40106647
C       15.45189000     -10.52843000       0.46497647
C       16.65185000     -11.46672000       0.42531647
H       14.80990000     -10.75406000      -0.41764353
H       14.89503000     -10.72251000       1.41066647
O       16.19346000     -12.80073000       0.46976647
H       17.29391000     -11.24071000       1.30793647
H       17.20874000     -11.27236000      -0.52043353
C       17.29908000     -13.67378000       0.43347647
H       16.92138000     -14.71621000       0.46926647
H       17.95480000     -13.53477000       1.32171647
H       17.86915000     -13.56681000      -0.51618353
C       -5.97255000       2.12385000       0.00269665
H       -6.27255000       3.12385000       0.01269665
H       -6.27255000       1.52385000       0.80269665
H       -6.27255000       1.72385000      -0.89730335
C       15.05150000      -0.04787000       0.38069647
H       15.35150000      -1.04787000       0.37069647
H       15.35150000       0.55213000      -0.41930353
H       15.35150000       0.35213000       1.28069647
