60
Properties=species:S:1:pos:R:3 "%%%'L':{'index':0,'type':'FG',R:'index':1,'type':'FG'}%%%"=T pbc="F F F"
C       -0.57156000       2.27866000       0.00000000
C        1.75306000      -0.31123000       0.00000000
C        1.65940000       2.30251000      -0.00000000
C        1.28845000       0.98865000       0.00000000
C       -0.10622000       0.97951000       0.00000000
C       -0.47792000      -0.33381000      -0.00000000
N        0.53085000       3.08576000      -0.00000000
N        0.65003000      -1.11769000      -0.00000000
O        2.68272000       2.98868000      -0.00000000
O       -1.52533000      -0.99533000      -0.00000000
C        0.50321000       4.54391000      -0.00000000
H       -0.54438000       4.91456000      -0.00000000
H        1.01847000       4.92769000      -0.90547000
H        1.01847000       4.92769000       0.90547000
C        0.67502000      -2.57587000      -0.00000000
H        1.72166000      -2.94887000      -0.00000000
H        0.15853000      -2.95844000      -0.90536000
H        0.15853000      -2.95845000       0.90536000
C       -4.52255000       2.12385000       0.00269665
C       -2.02156000       2.27866000       0.00000000
C       -4.04908183       3.42782204       0.00201663
C       -2.65223236       3.51429060       0.00051050
H       -4.69729709       4.29380322       0.00259505
H       -2.11575783       4.45360518      -0.00018844
S       -3.20278790       1.08217001       0.00142303
C        3.20306000      -0.31123000       0.00000000
C        5.70405000      -0.15642000       0.00000000
C        3.83374000      -1.54705000       0.00000000
C        5.23059000      -1.46059000       0.00000000
H        3.29728000      -2.48650000       0.00000000
H        5.87882000      -2.32671000       0.00000000
S        4.38427000       0.88543000       0.00000000
C        7.15405000      -0.15642000       0.00000000
C        9.64579000      -0.12830000       0.49195647
C        7.69930422       1.11043668       0.10209846
C        9.06553358       1.12562980       0.38846232
S        8.41538833      -1.25618573       0.24658703
O        9.70803676       2.30680228       0.53935836
O        7.02418975       2.27731120      -0.05008973
C        7.73740556       3.46182357      -0.22742979
C        8.96228106       3.46638791       0.71539846
H        9.59665539       4.36371573       0.54677744
H        8.58886630       3.47700417       1.76242606
H        7.07842011       4.33675227      -0.05978640
H        8.10999468       3.51042008      -1.27448832
C       11.09579000      -0.12830000       0.49195647
C       13.59678000       0.02651000       0.49195647
C       11.72647000      -1.36412000       0.49195647
C       13.12332000      -1.27766000       0.49195647
H       11.19001000      -2.30357000       0.49195647
H       13.77155000      -2.14378000       0.49195647
S       12.27700000       1.06836000       0.49195647
C       -5.97255000       2.12385000       0.00269665
H       -6.27255000       3.12385000       0.01269665
H       -6.27255000       1.52385000       0.80269665
H       -6.27255000       1.72385000      -0.89730335
C       15.04678000       0.02651000       0.49195647
H       15.34678000      -0.97349000       0.48195647
H       15.34678000       0.62651000      -0.30804353
H       15.34678000       0.42651000       1.39195647
