82
Properties=species:S:1:pos:R:3 "%%%'L':{'index':0,'type':'FG',R:'index':1,'type':'FG'}%%%"=T pbc="F F F"
C       -0.57156000       2.27866000       0.00000000
C        1.75306000      -0.31123000       0.00000000
C        1.65940000       2.30251000      -0.00000000
C        1.28845000       0.98865000       0.00000000
C       -0.10622000       0.97951000       0.00000000
C       -0.47792000      -0.33381000      -0.00000000
N        0.53085000       3.08576000      -0.00000000
N        0.65003000      -1.11769000      -0.00000000
O        2.68272000       2.98868000      -0.00000000
O       -1.52533000      -0.99533000      -0.00000000
C        0.50321000       4.54391000      -0.00000000
H       -0.54438000       4.91456000      -0.00000000
H        1.01847000       4.92769000      -0.90547000
H        1.01847000       4.92769000       0.90547000
C        0.67502000      -2.57587000      -0.00000000
H        1.72166000      -2.94887000      -0.00000000
H        0.15853000      -2.95844000      -0.90536000
H        0.15853000      -2.95845000       0.90536000
C       -4.52255000       2.12385000       0.00269665
C       -2.02156000       2.27866000       0.00000000
C       -4.04908183       3.42782204       0.00201663
C       -2.65223236       3.51429060       0.00051050
H       -4.69729709       4.29380322       0.00259505
H       -2.11575783       4.45360518      -0.00018844
S       -3.20278790       1.08217001       0.00142303
C        3.20306000      -0.31123000       0.00000000
C        5.70405000      -0.15642000       0.00000000
C        3.83374000      -1.54705000       0.00000000
C        5.23059000      -1.46059000       0.00000000
H        3.29728000      -2.48650000       0.00000000
H        5.87882000      -2.32671000       0.00000000
S        4.38427000       0.88543000       0.00000000
C        7.15405000      -0.15642000       0.00000000
C       13.40476000       0.19471000      -0.09991858
C       12.64831675       1.37881018      -0.05276485
C        7.77625522       1.10450632       0.02509699
S        8.34824042      -1.38923641      -0.05625296
C        9.61315587      -0.30027689      -0.04737365
C        9.15834071       0.97276028      -0.00298195
H        7.24795088       2.04667411       0.06132603
C       10.97749101      -0.22223766      -0.06914271
C       11.28783993       1.09510199      -0.03693784
N       10.17476825       1.87019724       0.00479559
S       12.35403765      -1.16355610      -0.12026794
H       13.07487653       2.37159913      -0.03188728
C       10.07580075       3.32381440       0.04809494
H       11.08380573       3.78777269       0.04362428
H        9.54547073       3.61680164       0.97172958
H        9.51006624       3.70034191      -0.83711694
C       14.85476000       0.19471000      -0.09991858
C       17.35553000       0.22035000      -0.22984858
C       15.41704000      -1.07333000      -0.11541858
C       16.82416000      -1.06480000      -0.18845858
H       14.81182000      -1.96838000      -0.07439858
S       16.09248000       1.32733000      -0.17628858
C       17.71719000      -2.28202000      -0.22165858
C       16.96268000      -3.61850000      -0.16814858
H       18.41062000      -2.22626000       0.64572142
H       18.31712000      -2.24566000      -1.15709858
C       17.93725000      -4.80191000      -0.20602858
H       16.27488000      -3.68706000      -1.03977858
H       16.36885000      -3.66760000       0.77125142
C       17.18455000      -6.13669000      -0.15262858
H       18.62872000      -4.73589000       0.66298142
H       18.53495000      -4.75527000      -1.14316858
C       18.15946000      -7.31915000      -0.19061858
H       16.49313000      -6.20325000      -1.02165858
H       16.58695000      -6.18391000       0.78457142
C       17.41424000      -8.64966000      -0.13765858
H       18.85157000      -7.26103000       0.67771142
H       18.75780000      -7.28035000      -1.12703858
H       16.82412000      -8.72466000       0.80055142
H       18.14371000      -9.48632000      -0.16660858
H       16.73015000      -8.74401000      -1.00783858
C       -5.97255000       2.12385000       0.00269665
H       -6.27255000       3.12385000       0.01269665
H       -6.27255000       1.52385000       0.80269665
H       -6.27255000       1.72385000      -0.89730335
C       18.80553000       0.22035000      -0.22984858
H       19.10553000      -0.77965000      -0.23984858
H       19.10553000       0.82035000      -1.02984858
H       19.10553000       0.62035000       0.67015142
