84
Properties=species:S:1:pos:R:3 "%%%'L':{'index':0,'type':'FG',R:'index':1,'type':'FG'}%%%"=T pbc="F F F"
C       -0.57156000       2.27866000       0.00000000
C        1.75306000      -0.31123000       0.00000000
C        1.65940000       2.30251000      -0.00000000
C        1.28845000       0.98865000       0.00000000
C       -0.10622000       0.97951000       0.00000000
C       -0.47792000      -0.33381000      -0.00000000
N        0.53085000       3.08576000      -0.00000000
N        0.65003000      -1.11769000      -0.00000000
O        2.68272000       2.98868000      -0.00000000
O       -1.52533000      -0.99533000      -0.00000000
C        0.50321000       4.54391000      -0.00000000
H       -0.54438000       4.91456000      -0.00000000
H        1.01847000       4.92769000      -0.90547000
H        1.01847000       4.92769000       0.90547000
C        0.67502000      -2.57587000      -0.00000000
H        1.72166000      -2.94887000      -0.00000000
H        0.15853000      -2.95844000      -0.90536000
H        0.15853000      -2.95845000       0.90536000
C       -4.52255000       2.12385000       0.00269665
C       -2.02156000       2.27866000       0.00000000
C       -4.04908183       3.42782204       0.00201663
C       -2.65223236       3.51429060       0.00051050
H       -4.69729709       4.29380322       0.00259505
H       -2.11575783       4.45360518      -0.00018844
S       -3.20278790       1.08217001       0.00142303
C        3.20306000      -0.31123000       0.00000000
C        5.70405000      -0.15642000       0.00000000
C        3.83374000      -1.54705000       0.00000000
C        5.23059000      -1.46059000       0.00000000
H        3.29728000      -2.48650000       0.00000000
H        5.87882000      -2.32671000       0.00000000
S        4.38427000       0.88543000       0.00000000
C        7.15405000      -0.15642000       0.00000000
C       15.71967000      -1.28907000      -0.01959688
C        7.96258504       0.97643635      -0.00111251
S        8.13243716      -1.53371213      -0.00298055
C        9.32748557       0.66869421      -0.00431089
H        7.57151730       1.98557283       0.00035157
C        9.59252857      -0.69407480      -0.00570687
C       10.90192643      -1.19345755      -0.00889659
C       10.37148725       1.59566825      -0.00606604
C       11.97179357      -0.25203245      -0.01070029
C       11.69620804       1.13370289      -0.00926736
H       10.16649206       2.65880507      -0.00498091
H       12.49983374       1.85888475      -0.01061148
C       11.17750936      -2.57920254      -0.01032952
C       13.28120108      -0.75141780      -0.01389004
C       13.54623443      -2.11418421      -0.01528599
C       12.50223275      -3.04115825      -0.01353084
H       10.37388366      -3.30438441      -0.00898541
H       12.70722794      -4.10429507      -0.01461597
C       14.91114462      -2.42192895      -0.01848439
S       14.74128284       0.08822213      -0.01661634
H       15.30220530      -3.43105318      -0.01994846
C       17.16967000      -1.28907000      -0.01959688
C       25.73529000      -2.42172000      -0.03919376
C       17.97820504      -0.15621365      -0.02070940
S       18.14805716      -2.66636213      -0.02257743
C       19.34310557      -0.46395579      -0.02390777
H       17.58713730       0.85292283      -0.01924531
C       19.60814857      -1.82672480      -0.02530375
C       20.91754643      -2.32610755      -0.02849347
C       20.38710725       0.46301825      -0.02566292
C       21.98741357      -1.38468245      -0.03029717
C       21.71182804       0.00105289      -0.02886424
H       20.18211206       1.52615507      -0.02457779
H       22.51545374       0.72623475      -0.03020836
C       21.19312936      -3.71185254      -0.02992640
C       23.29682108      -1.88406780      -0.03348692
C       23.56185443      -3.24683421      -0.03488288
C       22.51785275      -4.17380825      -0.03312773
H       20.38950366      -4.43703441      -0.02858229
H       22.72284794      -5.23694507      -0.03421286
C       24.92676462      -3.55457895      -0.03808127
S       24.75690284      -1.04442787      -0.03621322
H       25.31782530      -4.56370318      -0.03954534
C       -5.97255000       2.12385000       0.00269665
H       -6.27255000       3.12385000       0.01269665
H       -6.27255000       1.52385000       0.80269665
H       -6.27255000       1.72385000      -0.89730335
C       27.18529000      -2.42172000      -0.03919376
H       27.48529000      -3.42172000      -0.04919376
H       27.48529000      -1.82172000      -0.83919376
H       27.48529000      -2.02172000       0.86080624
