82
Properties=species:S:1:pos:R:3 "%%%'L':{'index':0,'type':'FG',R:'index':1,'type':'FG'}%%%"=T pbc="F F F"
C       -0.57156000       2.27866000       0.00000000
C        1.75306000      -0.31123000       0.00000000
C        1.65940000       2.30251000      -0.00000000
C        1.28845000       0.98865000       0.00000000
C       -0.10622000       0.97951000       0.00000000
C       -0.47792000      -0.33381000      -0.00000000
N        0.53085000       3.08576000      -0.00000000
N        0.65003000      -1.11769000      -0.00000000
O        2.68272000       2.98868000      -0.00000000
O       -1.52533000      -0.99533000      -0.00000000
C        0.50321000       4.54391000      -0.00000000
H       -0.54438000       4.91456000      -0.00000000
H        1.01847000       4.92769000      -0.90547000
H        1.01847000       4.92769000       0.90547000
C        0.67502000      -2.57587000      -0.00000000
H        1.72166000      -2.94887000      -0.00000000
H        0.15853000      -2.95844000      -0.90536000
H        0.15853000      -2.95845000       0.90536000
C       -4.52255000       2.12385000       0.00269665
C       -2.02156000       2.27866000       0.00000000
C       -4.04908183       3.42782204       0.00201663
C       -2.65223236       3.51429060       0.00051050
H       -4.69729709       4.29380322       0.00259505
H       -2.11575783       4.45360518      -0.00018844
S       -3.20278790       1.08217001       0.00142303
C        3.20306000      -0.31123000       0.00000000
C        5.70405000      -0.15642000       0.00000000
C        3.83374000      -1.54705000       0.00000000
C        5.23059000      -1.46059000       0.00000000
H        3.29728000      -2.48650000       0.00000000
H        5.87882000      -2.32671000       0.00000000
S        4.38427000       0.88543000       0.00000000
C        7.15405000      -0.15642000       0.00000000
C        9.65976000      -0.07599000      -0.10979617
C        7.66125367       1.13482727      -0.04255401
C        9.06679533       1.17805533      -0.10411554
H        7.02657857       2.01031961      -0.02903809
S        8.44300806      -1.23487316      -0.03861851
O        9.80775342       2.31242395      -0.15430527
C        9.28991918       3.59169551      -0.15246479
C       10.42741598       4.60332792      -0.21786430
H        8.70584865       3.74196143       0.77860423
H        8.62541206       3.74575249      -1.03450230
O        9.88299499       5.90505798      -0.21547237
H       10.99825602       4.43382981      -1.15583795
H       11.07931342       4.43016148       0.67289161
C       10.92812216       6.85263572      -0.27522269
C       10.32840476       8.25298509      -0.27408830
H       11.51551053       6.74882636      -1.21375419
H       11.59389920       6.74655975       0.61458369
O       11.37352098       9.20059196      -0.33382773
H        9.74103090       8.35699638       0.66441110
H        9.66260913       8.35884003      -1.16392238
C       10.82891593      10.50252984      -0.33484299
C       11.96590219      11.51589733      -0.39896896
H       10.25513706      10.67320506       0.60111750
H       10.17886453      10.67390386      -1.22728122
O       11.42195080      12.81792013      -0.40015264
H       12.53977467      11.34484749      -1.33493640
H       12.61600646      11.34424500       0.49352580
C       12.46898639      13.76012993      -0.45947037
H       12.02444918      14.77631646      -0.45973096
H       13.05043569      13.67685489      -1.40205665
H       13.12701475      13.67647146       0.43593967
C       11.10976000      -0.07599000      -0.10979617
C       15.60712000       0.73519000      -0.10979617
C       12.16072000      -0.99972000      -0.10979617
C       13.38723000      -0.34765000      -0.10979617
C       13.32964000       1.00685000      -0.10979617
C       14.55616000       1.65891000      -0.10979617
H       12.03509000      -2.07407000      -0.10979617
H       14.68178000       2.73326000      -0.10979617
S       11.73194000       1.51352000      -0.10979617
S       14.98494000      -0.85433000      -0.10979617
C       -5.97255000       2.12385000       0.00269665
H       -6.27255000       3.12385000       0.01269665
H       -6.27255000       1.52385000       0.80269665
H       -6.27255000       1.72385000      -0.89730335
C       17.05712000       0.73519000      -0.10979617
H       17.35712000      -0.26481000      -0.11979617
H       17.35712000       1.33519000      -0.90979617
H       17.35712000       1.13519000       0.79020383
