64
Properties=species:S:1:pos:R:3 "%%%'L':{'index':0,'type':'FG',R:'index':1,'type':'FG'}%%%"=T pbc="F F F"
C       -0.57156000       2.27866000       0.00000000
C        1.75306000      -0.31123000       0.00000000
C        1.65940000       2.30251000      -0.00000000
C        1.28845000       0.98865000       0.00000000
C       -0.10622000       0.97951000       0.00000000
C       -0.47792000      -0.33381000      -0.00000000
N        0.53085000       3.08576000      -0.00000000
N        0.65003000      -1.11769000      -0.00000000
O        2.68272000       2.98868000      -0.00000000
O       -1.52533000      -0.99533000      -0.00000000
C        0.50321000       4.54391000      -0.00000000
H       -0.54438000       4.91456000      -0.00000000
H        1.01847000       4.92769000      -0.90547000
H        1.01847000       4.92769000       0.90547000
C        0.67502000      -2.57587000      -0.00000000
H        1.72166000      -2.94887000      -0.00000000
H        0.15853000      -2.95844000      -0.90536000
H        0.15853000      -2.95845000       0.90536000
C       -4.52255000       2.12385000       0.00269665
C       -2.02156000       2.27866000       0.00000000
C       -4.04908183       3.42782204       0.00201663
C       -2.65223236       3.51429060       0.00051050
H       -4.69729709       4.29380322       0.00259505
H       -2.11575783       4.45360518      -0.00018844
S       -3.20278790       1.08217001       0.00142303
C        3.20306000      -0.31123000       0.00000000
C        5.70405000      -0.15642000       0.00000000
C        3.83374000      -1.54705000       0.00000000
C        5.23059000      -1.46059000       0.00000000
H        3.29728000      -2.48650000       0.00000000
H        5.87882000      -2.32671000       0.00000000
S        4.38427000       0.88543000       0.00000000
C        7.15405000      -0.15642000       0.00000000
C        9.65504000      -0.00161000       0.00269665
C        7.62751817       1.14755204       0.00068002
C        9.02436764       1.23402060       0.00218615
H        6.97930291       2.01353322       0.00010159
H        9.56084217       2.17333518       0.00288509
S        8.47381210      -1.19809999       0.00127362
C       11.10504000      -0.00161000       0.00269665
C       17.35575000       0.34952000      -0.10344335
C       16.73513000      -0.91276000      -0.12819335
C       11.86300000      -1.18583000      -0.04544335
S       12.15529000       1.35816000       0.02226665
C       13.53292000       0.41696000      -0.03041335
C       13.22190000      -0.89997000      -0.06249335
H       11.44231000      -2.18196000      -0.06626335
C       14.89741000       0.49221000      -0.05362335
C       15.35170000      -0.78305000      -0.09874335
N       14.33138000      -1.67855000      -0.10551335
S       16.16116000       1.58253000      -0.04577335
H       17.26897000      -1.85225000      -0.16513335
C       14.39399000      -3.13519000      -0.14856335
H       15.44710000      -3.48364000      -0.17816335
H       13.86962000      -3.50348000      -1.05503335
H       13.90325000      -3.55550000       0.75410665
C       -5.97255000       2.12385000       0.00269665
H       -6.27255000       3.12385000       0.01269665
H       -6.27255000       1.52385000       0.80269665
H       -6.27255000       1.72385000      -0.89730335
C       18.80575000       0.34952000      -0.10344335
H       19.10575000      -0.65048000      -0.11344335
H       19.10575000       0.94952000      -0.90344335
H       19.10575000       0.74952000       0.79655665
