79
Properties=species:S:1:pos:R:3 "%%%'L':{'index':0,'type':'FG',R:'index':1,'type':'FG'}%%%"=T pbc="F F F"
C       -0.57156000       2.27866000       0.00000000
C        1.75306000      -0.31123000       0.00000000
C        1.65940000       2.30251000      -0.00000000
C        1.28845000       0.98865000       0.00000000
C       -0.10622000       0.97951000       0.00000000
C       -0.47792000      -0.33381000      -0.00000000
N        0.53085000       3.08576000      -0.00000000
N        0.65003000      -1.11769000      -0.00000000
O        2.68272000       2.98868000      -0.00000000
O       -1.52533000      -0.99533000      -0.00000000
C        0.50321000       4.54391000      -0.00000000
H       -0.54438000       4.91456000      -0.00000000
H        1.01847000       4.92769000      -0.90547000
H        1.01847000       4.92769000       0.90547000
C        0.67502000      -2.57587000      -0.00000000
H        1.72166000      -2.94887000      -0.00000000
H        0.15853000      -2.95844000      -0.90536000
H        0.15853000      -2.95845000       0.90536000
C       -4.52255000       2.12385000       0.00269665
C       -2.02156000       2.27866000       0.00000000
C       -4.04908183       3.42782204       0.00201663
C       -2.65223236       3.51429060       0.00051050
H       -4.69729709       4.29380322       0.00259505
H       -2.11575783       4.45360518      -0.00018844
S       -3.20278790       1.08217001       0.00142303
C        3.20306000      -0.31123000       0.00000000
C        5.70405000      -0.15642000       0.00000000
C        3.83374000      -1.54705000       0.00000000
C        5.23059000      -1.46059000       0.00000000
H        3.29728000      -2.48650000       0.00000000
H        5.87882000      -2.32671000       0.00000000
S        4.38427000       0.88543000       0.00000000
C        7.15405000      -0.15642000       0.00000000
C       15.71967000      -1.28907000      -0.01959688
C        7.96258504       0.97643635      -0.00111251
S        8.13243716      -1.53371213      -0.00298055
C        9.32748557       0.66869421      -0.00431089
H        7.57151730       1.98557283       0.00035157
C        9.59252857      -0.69407480      -0.00570687
C       10.90192643      -1.19345755      -0.00889659
C       10.37148725       1.59566825      -0.00606604
C       11.97179357      -0.25203245      -0.01070029
C       11.69620804       1.13370289      -0.00926736
H       10.16649206       2.65880507      -0.00498091
H       12.49983374       1.85888475      -0.01061148
C       11.17750936      -2.57920254      -0.01032952
C       13.28120108      -0.75141780      -0.01389004
C       13.54623443      -2.11418421      -0.01528599
C       12.50223275      -3.04115825      -0.01353084
H       10.37388366      -3.30438441      -0.00898541
H       12.70722794      -4.10429507      -0.01461597
C       14.91114462      -2.42192895      -0.01848439
S       14.74128284       0.08822213      -0.01661634
H       15.30220530      -3.43105318      -0.01994846
C       17.16967000      -1.28907000      -0.01959688
C       23.42038000      -0.93794000      -0.11951546
C       22.66393675       0.24616018      -0.07236174
C       17.79187522      -0.02814368       0.00550011
S       18.36386042      -2.52188641      -0.07584985
C       19.62877587      -1.43292689      -0.06697054
C       19.17396071      -0.15988972      -0.02257883
H       17.26357088       0.91402411       0.04172915
C       20.99311101      -1.35488766      -0.08873959
C       21.30345993      -0.03754801      -0.05653472
N       20.19038825       0.73754724      -0.01480129
S       22.36965765      -2.29620610      -0.13986483
H       23.09049653       1.23894913      -0.05148416
C       20.09142075       2.19116440       0.02849806
H       21.09942573       2.65512269       0.02402740
H       19.56109073       2.48415164       0.95213270
H       19.52568624       2.56769191      -0.85671382
C       -5.97255000       2.12385000       0.00269665
H       -6.27255000       3.12385000       0.01269665
H       -6.27255000       1.52385000       0.80269665
H       -6.27255000       1.72385000      -0.89730335
C       24.87038000      -0.93794000      -0.11951546
H       25.17038000      -1.93794000      -0.12951546
H       25.17038000      -0.33794000      -0.91951546
H       25.17038000      -0.53794000       0.78048454
