114
Properties=species:S:1:pos:R:3 "%%%'L':{'index':0,'type':'FG',R:'index':1,'type':'FG'}%%%"=T pbc="F F F"
C       -0.57156000       2.27866000       0.00000000
C        1.75306000      -0.31123000       0.00000000
C        1.65940000       2.30251000      -0.00000000
C        1.28845000       0.98865000       0.00000000
C       -0.10622000       0.97951000       0.00000000
C       -0.47792000      -0.33381000      -0.00000000
N        0.53085000       3.08576000      -0.00000000
N        0.65003000      -1.11769000      -0.00000000
O        2.68272000       2.98868000      -0.00000000
O       -1.52533000      -0.99533000      -0.00000000
C        0.50321000       4.54391000      -0.00000000
H       -0.54438000       4.91456000      -0.00000000
H        1.01847000       4.92769000      -0.90547000
H        1.01847000       4.92769000       0.90547000
C        0.67502000      -2.57587000      -0.00000000
H        1.72166000      -2.94887000      -0.00000000
H        0.15853000      -2.95844000      -0.90536000
H        0.15853000      -2.95845000       0.90536000
C       -4.52255000       2.12385000       0.00269665
C       -2.02156000       2.27866000       0.00000000
C       -4.04908183       3.42782204       0.00201663
C       -2.65223236       3.51429060       0.00051050
H       -4.69729709       4.29380322       0.00259505
H       -2.11575783       4.45360518      -0.00018844
S       -3.20278790       1.08217001       0.00142303
C        3.20306000      -0.31123000       0.00000000
C        5.70405000      -0.15642000       0.00000000
C        3.83374000      -1.54705000       0.00000000
C        5.23059000      -1.46059000       0.00000000
H        3.29728000      -2.48650000       0.00000000
H        5.87882000      -2.32671000       0.00000000
S        4.38427000       0.88543000       0.00000000
C        7.15405000      -0.15642000       0.00000000
C       14.44901000       0.15999000      -1.68604000
C        7.16966000       0.92698000      -0.85552000
C        8.36616000       1.34610000      -1.42417000
H        6.25009000       1.45797000      -1.06401000
C        8.33153000      -0.83080000       0.29002000
C        9.59126000       0.67350000      -1.16968000
H        8.29517000       2.21958000      -2.04354000
C        9.57391000      -0.44913000      -0.28548000
H        8.22860000      -1.63210000       0.99788000
C       10.81889000       1.13113000      -1.73257000
C       10.78424000      -1.12739000       0.04692000
C       12.02919000       0.45278000      -1.40030000
C       12.01185000      -0.66987000      -0.51615000
C       13.27154000       0.83445000      -1.97587000
C       13.23695000      -1.34255000      -0.26186000
H       13.37442000       1.63582000      -2.68369000
C       14.43341000      -0.92348000      -0.83063000
H       13.30798000      -2.21611000       0.35740000
H       15.35297000      -1.45457000      -0.62230000
C       10.84255000       2.31079000      -2.66563000
S        9.86840000       2.52307000      -4.03433000
C       10.51256000       4.00503000      -4.49251000
C       11.50145000       4.36341000      -3.58938000
C       11.68807000       3.41993000      -2.57280000
H       12.07248000       5.27992000      -3.66020000
H       12.41736000       3.55347000      -1.78419000
C       10.76084000      -2.30669000       0.98049000
S       11.73554000      -2.51820000       2.34882000
C       11.09260000      -3.99923000       2.80871000
C       10.10259000      -4.35873000       1.90600000
C        9.91536000      -3.41588000       0.88888000
H        9.18565000      -3.54999000       0.10076000
H        9.53085000      -5.27482000       1.97639000
C       10.08840000       4.80463000      -5.67823000
H        9.27731000       4.28128000      -6.22648000
H       10.95235000       4.94606000      -6.36052000
H        9.71744000       5.79636000      -5.34535000
C       11.52765000      -4.78773000       3.99827000
H       10.94478000      -5.72950000       4.07882000
H       11.37090000      -4.18715000       4.91820000
H       12.60473000      -5.03758000       3.90314000
C       15.89901000       0.15999000      -1.68604000
C       18.40472000       0.24042000      -1.79730000
C       16.48855000      -1.09594000      -1.69278000
C       17.89397000      -1.04894000      -1.75521000
H       15.91173000      -2.01024000      -1.65350000
S       17.11565000       1.31877000      -1.75714000
O       18.70665000      -2.13334000      -1.77435000
C       18.27252000      -3.44305000      -1.73513000
C       19.47299000      -4.37955000      -1.77356000
H       17.61944000      -3.64886000      -2.61190000
H       17.69928000      -3.62097000      -0.79847000
O       19.01380000      -5.71337000      -1.73263000
H       20.11231000      -4.15524000      -0.88868000
H       20.03172000      -4.18353000      -2.71773000
C       20.11790000      -6.59189000      -1.76834000
C       19.61008000      -8.02762000      -1.72164000
H       20.77787000      -6.43209000      -0.88459000
H       20.69475000      -6.46194000      -2.71302000
O       20.71417000      -8.90617000      -1.75736000
H       18.95014000      -8.18762000      -2.60536000
H       19.03320000      -8.15735000      -0.77693000
C       20.25511000     -10.24014000      -1.71302000
C       21.45507000     -11.17843000      -1.75268000
H       19.61312000     -10.46577000      -2.59564000
H       19.69825000     -10.43422000      -0.76733000
O       20.99668000     -12.51244000      -1.70823000
H       22.09713000     -10.95242000      -0.87006000
H       22.01196000     -10.98407000      -2.69843000
C       22.10230000     -13.38549000      -1.74452000
H       21.72460000     -14.42792000      -1.70873000
H       22.75802000     -13.24648000      -0.85628000
H       22.67237000     -13.27852000      -2.69418000
C       -5.97255000       2.12385000       0.00269665
H       -6.27255000       3.12385000       0.01269665
H       -6.27255000       1.52385000       0.80269665
H       -6.27255000       1.72385000      -0.89730335
C       19.85472000       0.24042000      -1.79730000
H       20.15472000      -0.75958000      -1.80730000
H       20.15472000       0.84042000      -2.59730000
H       20.15472000       0.64042000      -0.89730000
