89
Properties=species:S:1:pos:R:3 "%%%'L':{'index':0,'type':'FG',R:'index':1,'type':'FG'}%%%"=T pbc="F F F"
C       -0.57156000       2.27866000       0.00000000
C        1.75306000      -0.31123000       0.00000000
C        1.65940000       2.30251000      -0.00000000
C        1.28845000       0.98865000       0.00000000
C       -0.10622000       0.97951000       0.00000000
C       -0.47792000      -0.33381000      -0.00000000
N        0.53085000       3.08576000      -0.00000000
N        0.65003000      -1.11769000      -0.00000000
O        2.68272000       2.98868000      -0.00000000
O       -1.52533000      -0.99533000      -0.00000000
C        0.50321000       4.54391000      -0.00000000
H       -0.54438000       4.91456000      -0.00000000
H        1.01847000       4.92769000      -0.90547000
H        1.01847000       4.92769000       0.90547000
C        0.67502000      -2.57587000      -0.00000000
H        1.72166000      -2.94887000      -0.00000000
H        0.15853000      -2.95844000      -0.90536000
H        0.15853000      -2.95845000       0.90536000
C       -4.52255000       2.12385000       0.00269665
C       -2.02156000       2.27866000       0.00000000
C       -4.04908183       3.42782204       0.00201663
C       -2.65223236       3.51429060       0.00051050
H       -4.69729709       4.29380322       0.00259505
H       -2.11575783       4.45360518      -0.00018844
S       -3.20278790       1.08217001       0.00142303
C        3.20306000      -0.31123000       0.00000000
C        5.70405000      -0.15642000       0.00000000
C        3.83374000      -1.54705000       0.00000000
C        5.23059000      -1.46059000       0.00000000
H        3.29728000      -2.48650000       0.00000000
H        5.87882000      -2.32671000       0.00000000
S        4.38427000       0.88543000       0.00000000
C        7.15405000      -0.15642000       0.00000000
C        9.65504000      -0.00161000       0.00269665
C        7.62751817       1.14755204       0.00068002
C        9.02436764       1.23402060       0.00218615
H        6.97930291       2.01353322       0.00010159
H        9.56084217       2.17333518       0.00288509
S        8.47381210      -1.19809999       0.00127362
C       11.10504000      -0.00161000       0.00269665
C       18.40000000       0.31480000      -1.68334335
C       11.12065000       1.08179000      -0.85282335
C       12.31715000       1.50091000      -1.42147335
H       10.20108000       1.61278000      -1.06131335
C       12.28252000      -0.67599000       0.29271665
C       13.54225000       0.82831000      -1.16698335
H       12.24616000       2.37439000      -2.04084335
C       13.52490000      -0.29432000      -0.28278335
H       12.17959000      -1.47729000       1.00057665
C       14.76988000       1.28594000      -1.72987335
C       14.73523000      -0.97258000       0.04961665
C       15.98018000       0.60759000      -1.39760335
C       15.96284000      -0.51506000      -0.51345335
C       17.22253000       0.98926000      -1.97317335
C       17.18794000      -1.18774000      -0.25916335
H       17.32541000       1.79063000      -2.68099335
C       18.38440000      -0.76867000      -0.82793335
H       17.25897000      -2.06130000       0.36009665
H       19.30396000      -1.29976000      -0.61960335
C       14.79354000       2.46560000      -2.66293335
S       13.81939000       2.67788000      -4.03163335
C       14.46355000       4.15984000      -4.48981335
C       15.45244000       4.51822000      -3.58668335
C       15.63906000       3.57474000      -2.57010335
H       16.02347000       5.43473000      -3.65750335
H       16.36835000       3.70828000      -1.78149335
C       14.71183000      -2.15188000       0.98318665
S       15.68653000      -2.36339000       2.35151665
C       15.04359000      -3.84442000       2.81140665
C       14.05358000      -4.20392000       1.90869665
C       13.86635000      -3.26107000       0.89157665
H       13.13664000      -3.39518000       0.10345665
H       13.48184000      -5.12001000       1.97908665
C       14.03939000       4.95944000      -5.67553335
H       13.22830000       4.43609000      -6.22378335
H       14.90334000       5.10087000      -6.35782335
H       13.66843000       5.95117000      -5.34265335
C       15.47864000      -4.63292000       4.00096665
H       14.89577000      -5.57469000       4.08151665
H       15.32189000      -4.03234000       4.92089665
H       16.55572000      -4.88277000       3.90583665
C       -5.97255000       2.12385000       0.00269665
H       -6.27255000       3.12385000       0.01269665
H       -6.27255000       1.52385000       0.80269665
H       -6.27255000       1.72385000      -0.89730335
C       19.85000000       0.31480000      -1.68334335
H       20.15000000      -0.68520000      -1.69334335
H       20.15000000       0.91480000      -2.48334335
H       20.15000000       0.71480000      -0.78334335
