82
Properties=species:S:1:pos:R:3 "%%%'L':{'index':0,'type':'FG',R:'index':1,'type':'FG'}%%%"=T pbc="F F F"
C       -0.57156000       2.27866000       0.00000000
C        1.75306000      -0.31123000       0.00000000
C        1.65940000       2.30251000      -0.00000000
C        1.28845000       0.98865000       0.00000000
C       -0.10622000       0.97951000       0.00000000
C       -0.47792000      -0.33381000      -0.00000000
N        0.53085000       3.08576000      -0.00000000
N        0.65003000      -1.11769000      -0.00000000
O        2.68272000       2.98868000      -0.00000000
O       -1.52533000      -0.99533000      -0.00000000
C        0.50321000       4.54391000      -0.00000000
H       -0.54438000       4.91456000      -0.00000000
H        1.01847000       4.92769000      -0.90547000
H        1.01847000       4.92769000       0.90547000
C        0.67502000      -2.57587000      -0.00000000
H        1.72166000      -2.94887000      -0.00000000
H        0.15853000      -2.95844000      -0.90536000
H        0.15853000      -2.95845000       0.90536000
C       -4.52255000       2.12385000       0.00269665
C       -2.02156000       2.27866000       0.00000000
C       -4.04908183       3.42782204       0.00201663
C       -2.65223236       3.51429060       0.00051050
H       -4.69729709       4.29380322       0.00259505
H       -2.11575783       4.45360518      -0.00018844
S       -3.20278790       1.08217001       0.00142303
C        3.20306000      -0.31123000       0.00000000
C        5.70405000      -0.15642000       0.00000000
C        3.83374000      -1.54705000       0.00000000
C        5.23059000      -1.46059000       0.00000000
H        3.29728000      -2.48650000       0.00000000
H        5.87882000      -2.32671000       0.00000000
S        4.38427000       0.88543000       0.00000000
C        7.15405000      -0.15642000       0.00000000
C       11.65141000       0.65476000       0.01393223
C        7.81608947       1.07611079       0.00325574
C        9.19311302       0.89370065       0.00705530
C        9.61233761      -0.39536415       0.00687690
C       10.98936704      -0.57776143       0.01067649
H        7.32305823       2.03871390       0.00286655
H       11.48238890      -1.54036803       0.01106565
S        8.29231124      -1.42817767       0.00192743
S       10.51314527       1.92652704       0.01200480
C       13.10141000       0.65476000       0.01393223
C       15.60712000       0.73519000      -0.09586394
C       13.60861367       1.94600727      -0.02862178
C       15.01415533       1.98923533      -0.09018331
H       12.97393857       2.82149961      -0.01510586
S       14.39036806      -0.42369316      -0.02468628
O       15.75511342       3.12360395      -0.14037304
C       15.23727918       4.40287551      -0.13853256
C       16.37477598       5.41450792      -0.20393207
H       14.65320865       4.55314143       0.79253646
H       14.57277206       4.55693249      -1.02057007
O       15.83035499       6.71623798      -0.20154013
H       16.94561602       5.24500981      -1.14190572
H       17.02667342       5.24134148       0.68682384
C       16.87548216       7.66381572      -0.26129046
C       16.27576476       9.06416509      -0.26015607
H       17.46287053       7.56000636      -1.19982196
H       17.54125920       7.55773975       0.62851593
O       17.32088098      10.01177196      -0.31989550
H       15.68839090       9.16817638       0.67834333
H       15.60996913       9.17002003      -1.14999015
C       16.77627593      11.31370984      -0.32091076
C       17.91326219      12.32707733      -0.38503673
H       16.20249706      11.48438506       0.61504973
H       16.12622453      11.48508386      -1.21334899
O       17.36931080      13.62910013      -0.38622041
H       18.48713467      12.15602749      -1.32100417
H       18.56336646      12.15542500       0.50745803
C       18.41634639      14.57130993      -0.44553814
H       17.97180918      15.58749646      -0.44579873
H       18.99779569      14.48803489      -1.38812442
H       19.07437475      14.48765146       0.44987190
C       -5.97255000       2.12385000       0.00269665
H       -6.27255000       3.12385000       0.01269665
H       -6.27255000       1.52385000       0.80269665
H       -6.27255000       1.72385000      -0.89730335
C       17.05712000       0.73519000      -0.09586394
H       17.35712000      -0.26481000      -0.10586394
H       17.35712000       1.33519000      -0.89586394
H       17.35712000       1.13519000       0.80413606
