67
Properties=species:S:1:pos:R:3 "%%%'L':{'index':0,'type':'FG',R:'index':1,'type':'FG'}%%%"=T pbc="F F F"
C       -0.57156000       2.27866000       0.00000000
C        1.75306000      -0.31123000       0.00000000
C        1.65940000       2.30251000      -0.00000000
C        1.28845000       0.98865000       0.00000000
C       -0.10622000       0.97951000       0.00000000
C       -0.47792000      -0.33381000      -0.00000000
N        0.53085000       3.08576000      -0.00000000
N        0.65003000      -1.11769000      -0.00000000
O        2.68272000       2.98868000      -0.00000000
O       -1.52533000      -0.99533000      -0.00000000
C        0.50321000       4.54391000      -0.00000000
H       -0.54438000       4.91456000      -0.00000000
H        1.01847000       4.92769000      -0.90547000
H        1.01847000       4.92769000       0.90547000
C        0.67502000      -2.57587000      -0.00000000
H        1.72166000      -2.94887000      -0.00000000
H        0.15853000      -2.95844000      -0.90536000
H        0.15853000      -2.95845000       0.90536000
C       -4.52255000       2.12385000       0.00269665
C       -2.02156000       2.27866000       0.00000000
C       -4.04908183       3.42782204       0.00201663
C       -2.65223236       3.51429060       0.00051050
H       -4.69729709       4.29380322       0.00259505
H       -2.11575783       4.45360518      -0.00018844
S       -3.20278790       1.08217001       0.00142303
C        3.20306000      -0.31123000       0.00000000
C        5.70405000      -0.15642000       0.00000000
C        3.83374000      -1.54705000       0.00000000
C        5.23059000      -1.46059000       0.00000000
H        3.29728000      -2.48650000       0.00000000
H        5.87882000      -2.32671000       0.00000000
S        4.38427000       0.88543000       0.00000000
C        7.15405000      -0.15642000       0.00000000
C        9.95061000      -0.24885000       0.00000000
C        7.89321000       1.03142000       0.00000000
C        7.81317000      -1.39048000       0.00000000
C        9.29149000       0.98520000       0.00000000
H        7.38330000       1.98611000       0.00000000
H        9.86332000       1.90415000       0.00000000
C        9.21145000      -1.43669000       0.00000000
H        7.24133000      -2.30942000       0.00000000
H        9.72136000      -2.39138000       0.00000000
C       11.40061000      -0.24885000       0.00000000
C       17.65132000       0.10228000      -0.10614000
C       17.03070000      -1.16000000      -0.13089000
C       12.15857000      -1.43307000      -0.04814000
S       12.45086000       1.11092000       0.01957000
C       13.82849000       0.16972000      -0.03311000
C       13.51747000      -1.14721000      -0.06519000
H       11.73788000      -2.42920000      -0.06896000
C       15.19298000       0.24497000      -0.05632000
C       15.64727000      -1.03029000      -0.10144000
N       14.62695000      -1.92579000      -0.10821000
S       16.45673000       1.33529000      -0.04847000
H       17.56454000      -2.09949000      -0.16783000
C       14.68956000      -3.38243000      -0.15126000
H       15.74267000      -3.73088000      -0.18086000
H       14.16519000      -3.75072000      -1.05773000
H       14.19882000      -3.80274000       0.75141000
C       -5.97255000       2.12385000       0.00269665
H       -6.27255000       3.12385000       0.01269665
H       -6.27255000       1.52385000       0.80269665
H       -6.27255000       1.72385000      -0.89730335
C       19.10132000       0.10228000      -0.10614000
H       19.40132000      -0.89772000      -0.11614000
H       19.40132000       0.70228000      -0.90614000
H       19.40132000       0.50228000       0.79386000
