87
Properties=species:S:1:pos:R:3 "%%%'L':{'index':0,'type':'FG',R:'index':1,'type':'FG'}%%%"=T pbc="F F F"
C       -0.57156000       2.27866000       0.00000000
C        1.75306000      -0.31123000       0.00000000
C        1.65940000       2.30251000      -0.00000000
C        1.28845000       0.98865000       0.00000000
C       -0.10622000       0.97951000       0.00000000
C       -0.47792000      -0.33381000      -0.00000000
N        0.53085000       3.08576000      -0.00000000
N        0.65003000      -1.11769000      -0.00000000
O        2.68272000       2.98868000      -0.00000000
O       -1.52533000      -0.99533000      -0.00000000
C        0.50321000       4.54391000      -0.00000000
H       -0.54438000       4.91456000      -0.00000000
H        1.01847000       4.92769000      -0.90547000
H        1.01847000       4.92769000       0.90547000
C        0.67502000      -2.57587000      -0.00000000
H        1.72166000      -2.94887000      -0.00000000
H        0.15853000      -2.95844000      -0.90536000
H        0.15853000      -2.95845000       0.90536000
C       -4.52255000       2.12385000       0.00269665
C       -2.02156000       2.27866000       0.00000000
C       -4.04908183       3.42782204       0.00201663
C       -2.65223236       3.51429060       0.00051050
H       -4.69729709       4.29380322       0.00259505
H       -2.11575783       4.45360518      -0.00018844
S       -3.20278790       1.08217001       0.00142303
C        3.20306000      -0.31123000       0.00000000
C        5.70405000      -0.15642000       0.00000000
C        3.83374000      -1.54705000       0.00000000
C        5.23059000      -1.46059000       0.00000000
H        3.29728000      -2.48650000       0.00000000
H        5.87882000      -2.32671000       0.00000000
S        4.38427000       0.88543000       0.00000000
C        7.15405000      -0.15642000       0.00000000
C        9.65482000      -0.13078000      -0.12945993
C        7.69001482       1.12291333      -0.04254624
C        9.09701249       1.14323627      -0.11545709
H        7.06643182       2.00538787      -0.02059797
S        8.41490692      -1.26345177      -0.05225373
C        9.96470765       2.37854058      -0.17462034
C        9.18274714       3.69930208      -0.14958191
H       10.56532167       2.35180231      -1.10893238
H       10.65908413       2.33969452       0.69358205
C       10.13267268       4.90247310      -0.21253045
H        8.58792262       3.73888638       0.78837626
H        8.49377657       3.75107859      -1.02235133
C        9.35255669       6.22157206      -0.18757012
H       10.73136898       4.86546336      -1.14826234
H       10.82520897       4.85327533       0.65759157
C       10.30285031       7.42379889      -0.25044458
H        8.75390164       6.25912234       0.74817657
H        8.66010229       6.27135275      -1.05776206
C        9.53030159       8.73878191      -0.22582104
H       10.90209923       7.39468883      -1.18556519
H       10.99579508       7.38246372       0.61889646
H        8.84463767       8.81650878      -1.09778673
H       10.24234705       9.59024114      -0.27235266
H        8.93851185       8.80424982       0.71031546
C       11.10482000      -0.13078000      -0.12945993
C       19.67044000      -1.26343000      -0.12945993
C       11.59109000      -1.43504000      -0.12945993
S       12.40759000       0.94506000      -0.12945993
C       12.98907000      -1.49262000      -0.12945993
H       10.95115000      -2.30799000      -0.12945993
C       13.59924000      -0.24538000      -0.12945993
C       14.99344000      -0.10345000      -0.12945993
C       13.75623000      -2.65925000      -0.12945993
C       15.78182000      -1.29076000      -0.12945993
C       15.15550000      -2.55744000      -0.12945993
H       13.28193000      -3.63272000      -0.12945993
H       15.74300000      -3.46670000      -0.12945993
C       15.61976000       1.16324000      -0.12945993
C       17.17603000      -1.14883000      -0.12945993
C       17.78619000       0.09841000      -0.12945993
C       17.01903000       1.26504000      -0.12945993
H       15.03226000       2.07250000      -0.12945993
H       17.49333000       2.23851000      -0.12945993
C       19.18418000       0.04083000      -0.12945993
S       18.36767000      -2.33927000      -0.12945993
H       19.82411000       0.91377000      -0.12945993
C       -5.97255000       2.12385000       0.00269665
H       -6.27255000       3.12385000       0.01269665
H       -6.27255000       1.52385000       0.80269665
H       -6.27255000       1.72385000      -0.89730335
C       21.12044000      -1.26343000      -0.12945993
H       21.42044000      -2.26343000      -0.13945993
H       21.42044000      -0.66343000      -0.92945993
H       21.42044000      -0.86343000       0.77054007
