60
Properties=species:S:1:pos:R:3 "%%%'L':{'index':0,'type':'FG',R:'index':1,'type':'FG'}%%%"=T pbc="F F F"
C       -0.57156000       2.27866000       0.00000000
C        1.75306000      -0.31123000       0.00000000
C        1.65940000       2.30251000      -0.00000000
C        1.28845000       0.98865000       0.00000000
C       -0.10622000       0.97951000       0.00000000
C       -0.47792000      -0.33381000      -0.00000000
N        0.53085000       3.08576000      -0.00000000
N        0.65003000      -1.11769000      -0.00000000
O        2.68272000       2.98868000      -0.00000000
O       -1.52533000      -0.99533000      -0.00000000
C        0.50321000       4.54391000      -0.00000000
H       -0.54438000       4.91456000      -0.00000000
H        1.01847000       4.92769000      -0.90547000
H        1.01847000       4.92769000       0.90547000
C        0.67502000      -2.57587000      -0.00000000
H        1.72166000      -2.94887000      -0.00000000
H        0.15853000      -2.95844000      -0.90536000
H        0.15853000      -2.95845000       0.90536000
C       -4.52255000       2.12385000       0.00269665
C       -2.02156000       2.27866000       0.00000000
C       -4.04908183       3.42782204       0.00201663
C       -2.65223236       3.51429060       0.00051050
H       -4.69729709       4.29380322       0.00259505
H       -2.11575783       4.45360518      -0.00018844
S       -3.20278790       1.08217001       0.00142303
C        3.20306000      -0.31123000       0.00000000
C        5.70405000      -0.15642000       0.00000000
C        3.83374000      -1.54705000       0.00000000
C        5.23059000      -1.46059000       0.00000000
H        3.29728000      -2.48650000       0.00000000
H        5.87882000      -2.32671000       0.00000000
S        4.38427000       0.88543000       0.00000000
C        7.15405000      -0.15642000       0.00000000
C       11.65141000       0.65476000       0.01393223
C        7.81608947       1.07611079       0.00325574
C        9.19311302       0.89370065       0.00705530
C        9.61233761      -0.39536415       0.00687690
C       10.98936704      -0.57776143       0.01067649
H        7.32305823       2.03871390       0.00286655
H       11.48238890      -1.54036803       0.01106565
S        8.29231124      -1.42817767       0.00192743
S       10.51314527       1.92652704       0.01200480
C       13.10141000       0.65476000       0.01393223
C       17.59877000       1.46594000       0.02786446
C       13.76344947       1.88729079       0.01718797
C       15.14047302       1.70488065       0.02098753
C       15.55969761       0.41581585       0.02080913
C       16.93672704       0.23341857       0.02460873
H       13.27041823       2.84989390       0.01679878
H       17.42974890      -0.72918803       0.02499788
S       14.23967124      -0.61699767       0.01585966
S       16.46050527       2.73770704       0.02593703
C       -5.97255000       2.12385000       0.00269665
H       -6.27255000       3.12385000       0.01269665
H       -6.27255000       1.52385000       0.80269665
H       -6.27255000       1.72385000      -0.89730335
C       19.04877000       1.46594000       0.02786446
H       19.34877000       0.46594000       0.01786446
H       19.34877000       2.06594000      -0.77213554
H       19.34877000       1.86594000       0.92786446
