124
Properties=species:S:1:pos:R:3 "%%%'L':{'index':0,'type':'FG',R:'index':1,'type':'FG'}%%%"=T pbc="F F F"
C       -0.57156000       2.27866000       0.00000000
C        1.75306000      -0.31123000       0.00000000
C        1.65940000       2.30251000      -0.00000000
C        1.28845000       0.98865000       0.00000000
C       -0.10622000       0.97951000       0.00000000
C       -0.47792000      -0.33381000      -0.00000000
N        0.53085000       3.08576000      -0.00000000
N        0.65003000      -1.11769000      -0.00000000
O        2.68272000       2.98868000      -0.00000000
O       -1.52533000      -0.99533000      -0.00000000
C        0.50321000       4.54391000      -0.00000000
H       -0.54438000       4.91456000      -0.00000000
H        1.01847000       4.92769000      -0.90547000
H        1.01847000       4.92769000       0.90547000
C        0.67502000      -2.57587000      -0.00000000
H        1.72166000      -2.94887000      -0.00000000
H        0.15853000      -2.95844000      -0.90536000
H        0.15853000      -2.95845000       0.90536000
C       -4.52255000       2.12385000       0.00269665
C       -2.02156000       2.27866000       0.00000000
C       -4.04908183       3.42782204       0.00201663
C       -2.65223236       3.51429060       0.00051050
H       -4.69729709       4.29380322       0.00259505
H       -2.11575783       4.45360518      -0.00018844
S       -3.20278790       1.08217001       0.00142303
C        3.20306000      -0.31123000       0.00000000
C        5.70405000      -0.15642000       0.00000000
C        3.83374000      -1.54705000       0.00000000
C        5.23059000      -1.46059000       0.00000000
H        3.29728000      -2.48650000       0.00000000
H        5.87882000      -2.32671000       0.00000000
S        4.38427000       0.88543000       0.00000000
C        7.15405000      -0.15642000       0.00000000
C       14.44901000       0.15999000      -1.68604000
C        7.16966000       0.92698000      -0.85552000
C        8.36616000       1.34610000      -1.42417000
H        6.25009000       1.45797000      -1.06401000
C        8.33153000      -0.83080000       0.29002000
C        9.59126000       0.67350000      -1.16968000
H        8.29517000       2.21958000      -2.04354000
C        9.57391000      -0.44913000      -0.28548000
H        8.22860000      -1.63210000       0.99788000
C       10.81889000       1.13113000      -1.73257000
C       10.78424000      -1.12739000       0.04692000
C       12.02919000       0.45278000      -1.40030000
C       12.01185000      -0.66987000      -0.51615000
C       13.27154000       0.83445000      -1.97587000
C       13.23695000      -1.34255000      -0.26186000
H       13.37442000       1.63582000      -2.68369000
C       14.43341000      -0.92348000      -0.83063000
H       13.30798000      -2.21611000       0.35740000
H       15.35297000      -1.45457000      -0.62230000
C       10.84255000       2.31079000      -2.66563000
S        9.86840000       2.52307000      -4.03433000
C       10.51256000       4.00503000      -4.49251000
C       11.50145000       4.36341000      -3.58938000
C       11.68807000       3.41993000      -2.57280000
H       12.07248000       5.27992000      -3.66020000
H       12.41736000       3.55347000      -1.78419000
C       10.76084000      -2.30669000       0.98049000
S       11.73554000      -2.51820000       2.34882000
C       11.09260000      -3.99923000       2.80871000
C       10.10259000      -4.35873000       1.90600000
C        9.91536000      -3.41588000       0.88888000
H        9.18565000      -3.54999000       0.10076000
H        9.53085000      -5.27482000       1.97639000
C       10.08840000       4.80463000      -5.67823000
H        9.27731000       4.28128000      -6.22648000
H       10.95235000       4.94606000      -6.36052000
H        9.71744000       5.79636000      -5.34535000
C       11.52765000      -4.78773000       3.99827000
H       10.94478000      -5.72950000       4.07882000
H       11.37090000      -4.18715000       4.91820000
H       12.60473000      -5.03758000       3.90314000
C       15.89901000       0.15999000      -1.68604000
C       23.19397000       0.47640000      -3.37208000
C       15.91462000       1.24339000      -2.54156000
C       17.11112000       1.66251000      -3.11021000
H       14.99505000       1.77438000      -2.75005000
C       17.07649000      -0.51439000      -1.39602000
C       18.33622000       0.98991000      -2.85572000
H       17.04013000       2.53599000      -3.72958000
C       18.31887000      -0.13272000      -1.97152000
H       16.97356000      -1.31569000      -0.68816000
C       19.56385000       1.44754000      -3.41861000
C       19.52920000      -0.81098000      -1.63912000
C       20.77415000       0.76919000      -3.08634000
C       20.75681000      -0.35346000      -2.20219000
C       22.01650000       1.15086000      -3.66191000
C       21.98191000      -1.02614000      -1.94790000
H       22.11938000       1.95223000      -4.36973000
C       23.17837000      -0.60707000      -2.51667000
H       22.05294000      -1.89970000      -1.32864000
H       24.09793000      -1.13816000      -2.30834000
C       19.58751000       2.62720000      -4.35167000
S       18.61336000       2.83948000      -5.72037000
C       19.25752000       4.32144000      -6.17855000
C       20.24641000       4.67982000      -5.27542000
C       20.43303000       3.73634000      -4.25884000
H       20.81744000       5.59633000      -5.34624000
H       21.16232000       3.86988000      -3.47023000
C       19.50580000      -1.99028000      -0.70555000
S       20.48050000      -2.20179000       0.66278000
C       19.83756000      -3.68282000       1.12267000
C       18.84755000      -4.04232000       0.21996000
C       18.66032000      -3.09947000      -0.79716000
H       17.93061000      -3.23358000      -1.58528000
H       18.27581000      -4.95841000       0.29035000
C       18.83336000       5.12104000      -7.36427000
H       18.02227000       4.59769000      -7.91252000
H       19.69731000       5.26247000      -8.04656000
H       18.46240000       6.11277000      -7.03139000
C       20.27261000      -4.47132000       2.31223000
H       19.68974000      -5.41309000       2.39278000
H       20.11586000      -3.87074000       3.23216000
H       21.34969000      -4.72117000       2.21710000
C       -5.97255000       2.12385000       0.00269665
H       -6.27255000       3.12385000       0.01269665
H       -6.27255000       1.52385000       0.80269665
H       -6.27255000       1.72385000      -0.89730335
C       24.64397000       0.47640000      -3.37208000
H       24.94397000      -0.52360000      -3.38208000
H       24.94397000       1.07640000      -4.17208000
H       24.94397000       0.87640000      -2.47208000
