99
Properties=species:S:1:pos:R:3 "%%%'L':{'index':0,'type':'FG',R:'index':1,'type':'FG'}%%%"=T pbc="F F F"
C       -0.57156000       2.27866000       0.00000000
C        1.75306000      -0.31123000       0.00000000
C        1.65940000       2.30251000      -0.00000000
C        1.28845000       0.98865000       0.00000000
C       -0.10622000       0.97951000       0.00000000
C       -0.47792000      -0.33381000      -0.00000000
N        0.53085000       3.08576000      -0.00000000
N        0.65003000      -1.11769000      -0.00000000
O        2.68272000       2.98868000      -0.00000000
O       -1.52533000      -0.99533000      -0.00000000
C        0.50321000       4.54391000      -0.00000000
H       -0.54438000       4.91456000      -0.00000000
H        1.01847000       4.92769000      -0.90547000
H        1.01847000       4.92769000       0.90547000
C        0.67502000      -2.57587000      -0.00000000
H        1.72166000      -2.94887000      -0.00000000
H        0.15853000      -2.95844000      -0.90536000
H        0.15853000      -2.95845000       0.90536000
C       -4.52255000       2.12385000       0.00269665
C       -2.02156000       2.27866000       0.00000000
C       -4.04908183       3.42782204       0.00201663
C       -2.65223236       3.51429060       0.00051050
H       -4.69729709       4.29380322       0.00259505
H       -2.11575783       4.45360518      -0.00018844
S       -3.20278790       1.08217001       0.00142303
C        3.20306000      -0.31123000       0.00000000
C        5.70405000      -0.15642000       0.00000000
C        3.83374000      -1.54705000       0.00000000
C        5.23059000      -1.46059000       0.00000000
H        3.29728000      -2.48650000       0.00000000
H        5.87882000      -2.32671000       0.00000000
S        4.38427000       0.88543000       0.00000000
C        7.15405000      -0.15642000       0.00000000
C       14.44901000       0.15999000      -1.68604000
C        7.16966000       0.92698000      -0.85552000
C        8.36616000       1.34610000      -1.42417000
H        6.25009000       1.45797000      -1.06401000
C        8.33153000      -0.83080000       0.29002000
C        9.59126000       0.67350000      -1.16968000
H        8.29517000       2.21958000      -2.04354000
C        9.57391000      -0.44913000      -0.28548000
H        8.22860000      -1.63210000       0.99788000
C       10.81889000       1.13113000      -1.73257000
C       10.78424000      -1.12739000       0.04692000
C       12.02919000       0.45278000      -1.40030000
C       12.01185000      -0.66987000      -0.51615000
C       13.27154000       0.83445000      -1.97587000
C       13.23695000      -1.34255000      -0.26186000
H       13.37442000       1.63582000      -2.68369000
C       14.43341000      -0.92348000      -0.83063000
H       13.30798000      -2.21611000       0.35740000
H       15.35297000      -1.45457000      -0.62230000
C       10.84255000       2.31079000      -2.66563000
S        9.86840000       2.52307000      -4.03433000
C       10.51256000       4.00503000      -4.49251000
C       11.50145000       4.36341000      -3.58938000
C       11.68807000       3.41993000      -2.57280000
H       12.07248000       5.27992000      -3.66020000
H       12.41736000       3.55347000      -1.78419000
C       10.76084000      -2.30669000       0.98049000
S       11.73554000      -2.51820000       2.34882000
C       11.09260000      -3.99923000       2.80871000
C       10.10259000      -4.35873000       1.90600000
C        9.91536000      -3.41588000       0.88888000
H        9.18565000      -3.54999000       0.10076000
H        9.53085000      -5.27482000       1.97639000
C       10.08840000       4.80463000      -5.67823000
H        9.27731000       4.28128000      -6.22648000
H       10.95235000       4.94606000      -6.36052000
H        9.71744000       5.79636000      -5.34535000
C       11.52765000      -4.78773000       3.99827000
H       10.94478000      -5.72950000       4.07882000
H       11.37090000      -4.18715000       4.91820000
H       12.60473000      -5.03758000       3.90314000
C       15.89901000       0.15999000      -1.68604000
C       22.14972000       0.51112000      -1.79218000
C       21.52910000      -0.75116000      -1.81693000
C       16.65697000      -1.02423000      -1.73418000
S       16.94926000       1.51976000      -1.66647000
C       18.32689000       0.57856000      -1.71915000
C       18.01587000      -0.73837000      -1.75123000
H       16.23628000      -2.02036000      -1.75500000
C       19.69138000       0.65381000      -1.74236000
C       20.14567000      -0.62145000      -1.78748000
N       19.12535000      -1.51695000      -1.79425000
S       20.95513000       1.74413000      -1.73451000
H       22.06294000      -1.69065000      -1.85387000
C       19.18796000      -2.97359000      -1.83730000
H       20.24107000      -3.32204000      -1.86690000
H       18.66359000      -3.34188000      -2.74377000
H       18.69722000      -3.39390000      -0.93463000
C       -5.97255000       2.12385000       0.00269665
H       -6.27255000       3.12385000       0.01269665
H       -6.27255000       1.52385000       0.80269665
H       -6.27255000       1.72385000      -0.89730335
C       23.59972000       0.51112000      -1.79218000
H       23.89972000      -0.48888000      -1.80218000
H       23.89972000       1.11112000      -2.59218000
H       23.89972000       0.91112000      -0.89218000
