85
Properties=species:S:1:pos:R:3 "%%%'L':{'index':0,'type':'FG',R:'index':1,'type':'FG'}%%%"=T pbc="F F F"
C       -0.57156000       2.27866000       0.00000000
C        1.75306000      -0.31123000       0.00000000
C        1.65940000       2.30251000      -0.00000000
C        1.28845000       0.98865000       0.00000000
C       -0.10622000       0.97951000       0.00000000
C       -0.47792000      -0.33381000      -0.00000000
N        0.53085000       3.08576000      -0.00000000
N        0.65003000      -1.11769000      -0.00000000
O        2.68272000       2.98868000      -0.00000000
O       -1.52533000      -0.99533000      -0.00000000
C        0.50321000       4.54391000      -0.00000000
H       -0.54438000       4.91456000      -0.00000000
H        1.01847000       4.92769000      -0.90547000
H        1.01847000       4.92769000       0.90547000
C        0.67502000      -2.57587000      -0.00000000
H        1.72166000      -2.94887000      -0.00000000
H        0.15853000      -2.95844000      -0.90536000
H        0.15853000      -2.95845000       0.90536000
C       -6.51892000       1.46748000       0.00000000
C       -2.02156000       2.27866000       0.00000000
C       -5.46796000       0.54375000       0.00000000
C       -4.24145000       1.19582000       0.00000000
C       -4.29904000       2.55032000       0.00000000
C       -3.07252000       3.20238000       0.00000000
H       -5.59359000      -0.53060000       0.00000000
H       -2.94690000       4.27673000       0.00000000
S       -5.89674000       3.05699000       0.00000000
S       -2.64374000       0.68914000       0.00000000
C        3.20306000      -0.31123000       0.00000000
C        7.70042000       0.49995000       0.00000000
C        4.25402000      -1.23496000       0.00000000
C        5.48053000      -0.58289000       0.00000000
C        5.42294000       0.77161000       0.00000000
C        6.64946000       1.42367000       0.00000000
H        4.12839000      -2.30931000       0.00000000
H        6.77508000       2.49802000       0.00000000
S        3.82524000       1.27828000       0.00000000
S        7.07824000      -1.08957000       0.00000000
C        9.15042000       0.49995000       0.00000000
C       11.65141000       0.65476000       0.00000000
C        9.78110000      -0.73587000       0.00000000
C       11.17795000      -0.64941000       0.00000000
H        9.24464000      -1.67532000       0.00000000
H       11.82618000      -1.51553000       0.00000000
S       10.33163000       1.69661000       0.00000000
C       13.10141000       0.65476000       0.00000000
C       15.60712000       0.73519000      -0.10979617
C       13.60861367       1.94600727      -0.04255401
C       15.01415533       1.98923533      -0.10411554
H       12.97393857       2.82149961      -0.02903809
S       14.39036806      -0.42369316      -0.03861851
O       15.75511342       3.12360395      -0.15430527
C       15.23727918       4.40287551      -0.15246479
C       16.37477598       5.41450792      -0.21786430
H       14.65320865       4.55314143       0.77860423
H       14.57277206       4.55693249      -1.03450230
O       15.83035499       6.71623798      -0.21547237
H       16.94561602       5.24500981      -1.15583795
H       17.02667342       5.24134148       0.67289161
C       16.87548216       7.66381572      -0.27522269
C       16.27576476       9.06416509      -0.27408830
H       17.46287053       7.56000636      -1.21375419
H       17.54125920       7.55773975       0.61458369
O       17.32088098      10.01177196      -0.33382773
H       15.68839090       9.16817638       0.66441110
H       15.60996913       9.17002003      -1.16392238
C       16.77627593      11.31370984      -0.33484299
C       17.91326219      12.32707733      -0.39896896
H       16.20249706      11.48438506       0.60111750
H       16.12622453      11.48508386      -1.22728122
O       17.36931080      13.62910013      -0.40015264
H       18.48713467      12.15602749      -1.33493640
H       18.56336646      12.15542500       0.49352580
C       18.41634639      14.57130993      -0.45947037
H       17.97180918      15.58749646      -0.45973096
H       18.99779569      14.48803489      -1.40205665
H       19.07437475      14.48765146       0.43593967
C       -7.96892000       1.46748000       0.00000000
H       -8.26892000       2.46748000       0.01000000
H       -8.26892000       0.86748000       0.80000000
H       -8.26892000       1.06748000      -0.90000000
C       17.05712000       0.73519000      -0.10979617
H       17.35712000      -0.26481000      -0.11979617
H       17.35712000       1.33519000      -0.90979617
H       17.35712000       1.13519000       0.79020383
