69
Properties=species:S:1:pos:R:3 "%%%'L':{'index':0,'type':'FG',R:'index':1,'type':'FG'}%%%"=T pbc="F F F"
C       -0.57156000       2.27866000       0.00000000
C        1.75306000      -0.31123000       0.00000000
C        1.65940000       2.30251000      -0.00000000
C        1.28845000       0.98865000       0.00000000
C       -0.10622000       0.97951000       0.00000000
C       -0.47792000      -0.33381000      -0.00000000
N        0.53085000       3.08576000      -0.00000000
N        0.65003000      -1.11769000      -0.00000000
O        2.68272000       2.98868000      -0.00000000
O       -1.52533000      -0.99533000      -0.00000000
C        0.50321000       4.54391000      -0.00000000
H       -0.54438000       4.91456000      -0.00000000
H        1.01847000       4.92769000      -0.90547000
H        1.01847000       4.92769000       0.90547000
C        0.67502000      -2.57587000      -0.00000000
H        1.72166000      -2.94887000      -0.00000000
H        0.15853000      -2.95844000      -0.90536000
H        0.15853000      -2.95845000       0.90536000
C       -6.51892000       1.46748000       0.00000000
C       -2.02156000       2.27866000       0.00000000
C       -5.46796000       0.54375000       0.00000000
C       -4.24145000       1.19582000       0.00000000
C       -4.29904000       2.55032000       0.00000000
C       -3.07252000       3.20238000       0.00000000
H       -5.59359000      -0.53060000       0.00000000
H       -2.94690000       4.27673000       0.00000000
S       -5.89674000       3.05699000       0.00000000
S       -2.64374000       0.68914000       0.00000000
C        3.20306000      -0.31123000       0.00000000
C        7.70042000       0.49995000       0.00000000
C        4.25402000      -1.23496000       0.00000000
C        5.48053000      -0.58289000       0.00000000
C        5.42294000       0.77161000       0.00000000
C        6.64946000       1.42367000       0.00000000
H        4.12839000      -2.30931000       0.00000000
H        6.77508000       2.49802000       0.00000000
S        3.82524000       1.27828000       0.00000000
S        7.07824000      -1.08957000       0.00000000
C        9.15042000       0.49995000       0.00000000
C       11.64216000       0.52807000       0.49157000
C        9.72327000      -0.75425000       0.12367000
C       11.09581000      -0.73882000       0.37782000
S       10.38458000       1.62797000       0.24141000
O       11.77511000      -1.90554000       0.49254000
O        9.06865000      -1.93586000       0.01818000
C        9.68870000      -3.09993000       0.46344000
C       11.17971000      -3.08585000       0.05651000
H       11.72340000      -3.96489000       0.46126000
H       11.23249000      -3.11928000      -1.05384000
H        9.16364000      -3.99336000       0.06566000
H        9.63654000      -3.12572000       1.57402000
C       13.09216000       0.52807000       0.49157000
C       17.58952000       1.33925000       0.50550223
C       13.75419947       1.76060079       0.49482574
C       15.13122302       1.57819065       0.49862530
C       15.55044761       0.28912585       0.49844690
C       16.92747704       0.10672857       0.50224649
H       13.26116823       2.72320390       0.49443655
H       17.42049890      -0.85587803       0.50263565
S       14.23042124      -0.74368767       0.49349743
S       16.45125527       2.61101704       0.50357480
C       -7.96892000       1.46748000       0.00000000
H       -8.26892000       2.46748000       0.01000000
H       -8.26892000       0.86748000       0.80000000
H       -8.26892000       1.06748000      -0.90000000
C       19.03952000       1.33925000       0.50550223
H       19.33952000       0.33925000       0.49550223
H       19.33952000       1.93925000      -0.29449777
H       19.33952000       1.73925000       1.40550223
