113
Properties=species:S:1:pos:R:3 "%%%'L':{'index':0,'type':'FG',R:'index':1,'type':'FG'}%%%"=T pbc="F F F"
C       -0.57156000       2.27866000       0.00000000
C        1.75306000      -0.31123000       0.00000000
C        1.65940000       2.30251000      -0.00000000
C        1.28845000       0.98865000       0.00000000
C       -0.10622000       0.97951000       0.00000000
C       -0.47792000      -0.33381000      -0.00000000
N        0.53085000       3.08576000      -0.00000000
N        0.65003000      -1.11769000      -0.00000000
O        2.68272000       2.98868000      -0.00000000
O       -1.52533000      -0.99533000      -0.00000000
C        0.50321000       4.54391000      -0.00000000
H       -0.54438000       4.91456000      -0.00000000
H        1.01847000       4.92769000      -0.90547000
H        1.01847000       4.92769000       0.90547000
C        0.67502000      -2.57587000      -0.00000000
H        1.72166000      -2.94887000      -0.00000000
H        0.15853000      -2.95844000      -0.90536000
H        0.15853000      -2.95845000       0.90536000
C       -6.51892000       1.46748000       0.00000000
C       -2.02156000       2.27866000       0.00000000
C       -5.46796000       0.54375000       0.00000000
C       -4.24145000       1.19582000       0.00000000
C       -4.29904000       2.55032000       0.00000000
C       -3.07252000       3.20238000       0.00000000
H       -5.59359000      -0.53060000       0.00000000
H       -2.94690000       4.27673000       0.00000000
S       -5.89674000       3.05699000       0.00000000
S       -2.64374000       0.68914000       0.00000000
C        3.20306000      -0.31123000       0.00000000
C        7.70042000       0.49995000       0.00000000
C        4.25402000      -1.23496000       0.00000000
C        5.48053000      -0.58289000       0.00000000
C        5.42294000       0.77161000       0.00000000
C        6.64946000       1.42367000       0.00000000
H        4.12839000      -2.30931000       0.00000000
H        6.77508000       2.49802000       0.00000000
S        3.82524000       1.27828000       0.00000000
S        7.07824000      -1.08957000       0.00000000
C        9.15042000       0.49995000       0.00000000
C       16.44538000       0.81636000      -1.68604000
C        9.16603000       1.58335000      -0.85552000
C       10.36253000       2.00247000      -1.42417000
H        8.24646000       2.11434000      -1.06401000
C       10.32790000      -0.17443000       0.29002000
C       11.58763000       1.32987000      -1.16968000
H       10.29154000       2.87595000      -2.04354000
C       11.57028000       0.20724000      -0.28548000
H       10.22497000      -0.97573000       0.99788000
C       12.81526000       1.78750000      -1.73257000
C       12.78061000      -0.47102000       0.04692000
C       14.02556000       1.10915000      -1.40030000
C       14.00822000      -0.01350000      -0.51615000
C       15.26791000       1.49082000      -1.97587000
C       15.23332000      -0.68618000      -0.26186000
H       15.37079000       2.29219000      -2.68369000
C       16.42978000      -0.26711000      -0.83063000
H       15.30435000      -1.55974000       0.35740000
H       17.34934000      -0.79820000      -0.62230000
C       12.83892000       2.96716000      -2.66563000
S       11.86477000       3.17944000      -4.03433000
C       12.50893000       4.66140000      -4.49251000
C       13.49782000       5.01978000      -3.58938000
C       13.68444000       4.07630000      -2.57280000
H       14.06885000       5.93629000      -3.66020000
H       14.41373000       4.20984000      -1.78419000
C       12.75721000      -1.65032000       0.98049000
S       13.73191000      -1.86183000       2.34882000
C       13.08897000      -3.34286000       2.80871000
C       12.09896000      -3.70236000       1.90600000
C       11.91173000      -2.75951000       0.88888000
H       11.18202000      -2.89362000       0.10076000
H       11.52722000      -4.61845000       1.97639000
C       12.08477000       5.46100000      -5.67823000
H       11.27368000       4.93765000      -6.22648000
H       12.94872000       5.60243000      -6.36052000
H       11.71381000       6.45273000      -5.34535000
C       13.52402000      -4.13136000       3.99827000
H       12.94115000      -5.07313000       4.07882000
H       13.36727000      -3.53078000       4.91820000
H       14.60110000      -4.38121000       3.90314000
C       17.89538000       0.81636000      -1.68604000
C       20.39615000       0.84200000      -1.81597000
C       18.45766000      -0.45168000      -1.70154000
C       19.86478000      -0.44315000      -1.77458000
H       17.85244000      -1.34673000      -1.66052000
S       19.13310000       1.94898000      -1.76241000
C       20.75781000      -1.66037000      -1.80778000
C       20.00330000      -2.99685000      -1.75427000
H       21.45124000      -1.60461000      -0.94040000
H       21.35774000      -1.62401000      -2.74322000
C       20.97787000      -4.18026000      -1.79215000
H       19.31550000      -3.06541000      -2.62590000
H       19.40947000      -3.04595000      -0.81487000
C       20.22517000      -5.51504000      -1.73875000
H       21.66934000      -4.11424000      -0.92314000
H       21.57557000      -4.13362000      -2.72929000
C       21.20008000      -6.69750000      -1.77674000
H       19.53375000      -5.58160000      -2.60778000
H       19.62757000      -5.56226000      -0.80155000
C       20.45486000      -8.02801000      -1.72378000
H       21.89219000      -6.63938000      -0.90841000
H       21.79842000      -6.65870000      -2.71316000
H       19.86474000      -8.10301000      -0.78557000
H       21.18433000      -8.86467000      -1.75273000
H       19.77077000      -8.12236000      -2.59396000
C       -7.96892000       1.46748000       0.00000000
H       -8.26892000       2.46748000       0.01000000
H       -8.26892000       0.86748000       0.80000000
H       -8.26892000       1.06748000      -0.90000000
C       21.84615000       0.84200000      -1.81597000
H       22.14615000      -0.15800000      -1.82597000
H       22.14615000       1.44200000      -2.61597000
H       22.14615000       1.24200000      -0.91597000
