81
Properties=species:S:1:pos:R:3 "%%%'L':{'index':0,'type':'FG',R:'index':1,'type':'FG'}%%%"=T pbc="F F F"
C       -0.57156000       2.27866000       0.00000000
C        1.75306000      -0.31123000       0.00000000
C        1.65940000       2.30251000      -0.00000000
C        1.28845000       0.98865000       0.00000000
C       -0.10622000       0.97951000       0.00000000
C       -0.47792000      -0.33381000      -0.00000000
N        0.53085000       3.08576000      -0.00000000
N        0.65003000      -1.11769000      -0.00000000
O        2.68272000       2.98868000      -0.00000000
O       -1.52533000      -0.99533000      -0.00000000
C        0.50321000       4.54391000      -0.00000000
H       -0.54438000       4.91456000      -0.00000000
H        1.01847000       4.92769000      -0.90547000
H        1.01847000       4.92769000       0.90547000
C        0.67502000      -2.57587000      -0.00000000
H        1.72166000      -2.94887000      -0.00000000
H        0.15853000      -2.95844000      -0.90536000
H        0.15853000      -2.95845000       0.90536000
C       -6.51892000       1.46748000       0.00000000
C       -2.02156000       2.27866000       0.00000000
C       -5.46796000       0.54375000       0.00000000
C       -4.24145000       1.19582000       0.00000000
C       -4.29904000       2.55032000       0.00000000
C       -3.07252000       3.20238000       0.00000000
H       -5.59359000      -0.53060000       0.00000000
H       -2.94690000       4.27673000       0.00000000
S       -5.89674000       3.05699000       0.00000000
S       -2.64374000       0.68914000       0.00000000
C        3.20306000      -0.31123000       0.00000000
C        7.70042000       0.49995000       0.00000000
C        4.25402000      -1.23496000       0.00000000
C        5.48053000      -0.58289000       0.00000000
C        5.42294000       0.77161000       0.00000000
C        6.64946000       1.42367000       0.00000000
H        4.12839000      -2.30931000       0.00000000
H        6.77508000       2.49802000       0.00000000
S        3.82524000       1.27828000       0.00000000
S        7.07824000      -1.08957000       0.00000000
C        9.15042000       0.49995000       0.00000000
C       11.94698000       0.40752000       0.00000000
C        9.88958000       1.68779000       0.00000000
C        9.80954000      -0.73411000       0.00000000
C       11.28786000       1.64157000       0.00000000
H        9.37967000       2.64248000       0.00000000
H       11.85969000       2.56052000       0.00000000
C       11.20782000      -0.78032000       0.00000000
H        9.23770000      -1.65305000       0.00000000
H       11.71773000      -1.73501000       0.00000000
C       13.39698000       0.40752000       0.00000000
C       15.89775000       0.43316000      -0.12993000
C       13.95926000      -0.86052000      -0.01550000
C       15.36638000      -0.85199000      -0.08854000
H       13.35404000      -1.75557000       0.02552000
S       14.63470000       1.54014000      -0.07637000
C       16.25941000      -2.06921000      -0.12174000
C       15.50490000      -3.40569000      -0.06823000
H       16.95284000      -2.01345000       0.74564000
H       16.85934000      -2.03285000      -1.05718000
C       16.47947000      -4.58910000      -0.10611000
H       14.81710000      -3.47425000      -0.93986000
H       14.91107000      -3.45479000       0.87117000
C       15.72677000      -5.92388000      -0.05271000
H       17.17094000      -4.52308000       0.76290000
H       17.07717000      -4.54246000      -1.04325000
C       16.70168000      -7.10634000      -0.09070000
H       15.03535000      -5.99044000      -0.92174000
H       15.12917000      -5.97110000       0.88449000
C       15.95646000      -8.43685000      -0.03774000
H       17.39379000      -7.04822000       0.77763000
H       17.30002000      -7.06754000      -1.02712000
H       15.36634000      -8.51185000       0.90047000
H       16.68593000      -9.27351000      -0.06669000
H       15.27237000      -8.53120000      -0.90792000
C       -7.96892000       1.46748000       0.00000000
H       -8.26892000       2.46748000       0.01000000
H       -8.26892000       0.86748000       0.80000000
H       -8.26892000       1.06748000      -0.90000000
C       17.34775000       0.43316000      -0.12993000
H       17.64775000      -0.56684000      -0.13993000
H       17.64775000       1.03316000      -0.92993000
H       17.64775000       0.83316000       0.77007000
