70
Properties=species:S:1:pos:R:3 "%%%'L':{'index':0,'type':'FG',R:'index':1,'type':'FG'}%%%"=T pbc="F F F"
C       -0.57156000       2.27866000       0.00000000
C        1.75306000      -0.31123000       0.00000000
C        1.65940000       2.30251000      -0.00000000
C        1.28845000       0.98865000       0.00000000
C       -0.10622000       0.97951000       0.00000000
C       -0.47792000      -0.33381000      -0.00000000
N        0.53085000       3.08576000      -0.00000000
N        0.65003000      -1.11769000      -0.00000000
O        2.68272000       2.98868000      -0.00000000
O       -1.52533000      -0.99533000      -0.00000000
C        0.50321000       4.54391000      -0.00000000
H       -0.54438000       4.91456000      -0.00000000
H        1.01847000       4.92769000      -0.90547000
H        1.01847000       4.92769000       0.90547000
C        0.67502000      -2.57587000      -0.00000000
H        1.72166000      -2.94887000      -0.00000000
H        0.15853000      -2.95844000      -0.90536000
H        0.15853000      -2.95845000       0.90536000
C       -6.51892000       1.46748000       0.00000000
C       -2.02156000       2.27866000       0.00000000
C       -5.46796000       0.54375000       0.00000000
C       -4.24145000       1.19582000       0.00000000
C       -4.29904000       2.55032000       0.00000000
C       -3.07252000       3.20238000       0.00000000
H       -5.59359000      -0.53060000       0.00000000
H       -2.94690000       4.27673000       0.00000000
S       -5.89674000       3.05699000       0.00000000
S       -2.64374000       0.68914000       0.00000000
C        3.20306000      -0.31123000       0.00000000
C        7.70042000       0.49995000       0.00000000
C        4.25402000      -1.23496000       0.00000000
C        5.48053000      -0.58289000       0.00000000
C        5.42294000       0.77161000       0.00000000
C        6.64946000       1.42367000       0.00000000
H        4.12839000      -2.30931000       0.00000000
H        6.77508000       2.49802000       0.00000000
S        3.82524000       1.27828000       0.00000000
S        7.07824000      -1.08957000       0.00000000
C        9.15042000       0.49995000       0.00000000
C       11.65141000       0.65476000       0.00000000
C        9.78110000      -0.73587000       0.00000000
C       11.17795000      -0.64941000       0.00000000
H        9.24464000      -1.67532000       0.00000000
H       11.82618000      -1.51553000       0.00000000
S       10.33163000       1.69661000       0.00000000
C       13.10141000       0.65476000       0.00000000
C       19.35212000       1.00589000      -0.09991858
C       18.59567675       2.18999018      -0.05276485
C       13.72361522       1.91568632       0.02509699
S       14.29560042      -0.57805641      -0.05625296
C       15.56051587       0.51090311      -0.04737365
C       15.10570071       1.78394028      -0.00298195
H       13.19531088       2.85785411       0.06132603
C       16.92485101       0.58894234      -0.06914271
C       17.23519993       1.90628199      -0.03693784
N       16.12212825       2.68137724       0.00479559
S       18.30139765      -0.35237610      -0.12026794
H       19.02223653       3.18277913      -0.03188728
C       16.02316075       4.13499440       0.04809494
H       17.03116573       4.59895269       0.04362428
H       15.49283073       4.42798164       0.97172958
H       15.45742624       4.51152191      -0.83711694
C       -7.96892000       1.46748000       0.00000000
H       -8.26892000       2.46748000       0.01000000
H       -8.26892000       0.86748000       0.80000000
H       -8.26892000       1.06748000      -0.90000000
C       20.80212000       1.00589000      -0.09991858
H       21.10212000       0.00589000      -0.10991858
H       21.10212000       1.60589000      -0.89991858
H       21.10212000       1.40589000       0.80008142
