66
Properties=species:S:1:pos:R:3 "%%%'L':{'index':0,'type':'FG',R:'index':1,'type':'FG'}%%%"=T pbc="F F F"
C       -0.57156000       2.27866000       0.00000000
C        1.75306000      -0.31123000       0.00000000
C        1.65940000       2.30251000      -0.00000000
C        1.28845000       0.98865000       0.00000000
C       -0.10622000       0.97951000       0.00000000
C       -0.47792000      -0.33381000      -0.00000000
N        0.53085000       3.08576000      -0.00000000
N        0.65003000      -1.11769000      -0.00000000
O        2.68272000       2.98868000      -0.00000000
O       -1.52533000      -0.99533000      -0.00000000
C        0.50321000       4.54391000      -0.00000000
H       -0.54438000       4.91456000      -0.00000000
H        1.01847000       4.92769000      -0.90547000
H        1.01847000       4.92769000       0.90547000
C        0.67502000      -2.57587000      -0.00000000
H        1.72166000      -2.94887000      -0.00000000
H        0.15853000      -2.95844000      -0.90536000
H        0.15853000      -2.95845000       0.90536000
C       -6.51892000       1.46748000       0.00000000
C       -2.02156000       2.27866000       0.00000000
C       -5.46796000       0.54375000       0.00000000
C       -4.24145000       1.19582000       0.00000000
C       -4.29904000       2.55032000       0.00000000
C       -3.07252000       3.20238000       0.00000000
H       -5.59359000      -0.53060000       0.00000000
H       -2.94690000       4.27673000       0.00000000
S       -5.89674000       3.05699000       0.00000000
S       -2.64374000       0.68914000       0.00000000
C        3.20306000      -0.31123000       0.00000000
C        7.70042000       0.49995000       0.00000000
C        4.25402000      -1.23496000       0.00000000
C        5.48053000      -0.58289000       0.00000000
C        5.42294000       0.77161000       0.00000000
C        6.64946000       1.42367000       0.00000000
H        4.12839000      -2.30931000       0.00000000
H        6.77508000       2.49802000       0.00000000
S        3.82524000       1.27828000       0.00000000
S        7.07824000      -1.08957000       0.00000000
C        9.15042000       0.49995000       0.00000000
C       11.64216000       0.52807000       0.49157000
C        9.72327000      -0.75425000       0.12367000
C       11.09581000      -0.73882000       0.37782000
S       10.38458000       1.62797000       0.24141000
O       11.77511000      -1.90554000       0.49254000
O        9.06865000      -1.93586000       0.01818000
C        9.68870000      -3.09993000       0.46344000
C       11.17971000      -3.08585000       0.05651000
H       11.72340000      -3.96489000       0.46126000
H       11.23249000      -3.11928000      -1.05384000
H        9.16364000      -3.99336000       0.06566000
H        9.63654000      -3.12572000       1.57402000
C       13.09216000       0.52807000       0.49157000
C       15.59315000       0.68288000       0.49426665
C       13.56562817       1.83204204       0.49225002
C       14.96247764       1.91851060       0.49375615
H       12.91741291       2.69802322       0.49167159
H       15.49895217       2.85782518       0.49445509
S       14.41192210      -0.51360999       0.49284362
C       -7.96892000       1.46748000       0.00000000
H       -8.26892000       2.46748000       0.01000000
H       -8.26892000       0.86748000       0.80000000
H       -8.26892000       1.06748000      -0.90000000
C       17.04315000       0.68288000       0.49426665
H       17.34315000      -0.31712000       0.48426665
H       17.34315000       1.28288000      -0.30573335
H       17.34315000       1.08288000       1.39426665
