81
Properties=species:S:1:pos:R:3 "%%%'L':{'index':0,'type':'FG',R:'index':1,'type':'FG'}%%%"=T pbc="F F F"
C       -0.57156000       2.27866000       0.00000000
C        1.75306000      -0.31123000       0.00000000
C        1.65940000       2.30251000      -0.00000000
C        1.28845000       0.98865000       0.00000000
C       -0.10622000       0.97951000       0.00000000
C       -0.47792000      -0.33381000      -0.00000000
N        0.53085000       3.08576000      -0.00000000
N        0.65003000      -1.11769000      -0.00000000
O        2.68272000       2.98868000      -0.00000000
O       -1.52533000      -0.99533000      -0.00000000
C        0.50321000       4.54391000      -0.00000000
H       -0.54438000       4.91456000      -0.00000000
H        1.01847000       4.92769000      -0.90547000
H        1.01847000       4.92769000       0.90547000
C        0.67502000      -2.57587000      -0.00000000
H        1.72166000      -2.94887000      -0.00000000
H        0.15853000      -2.95844000      -0.90536000
H        0.15853000      -2.95845000       0.90536000
C       -6.51892000       1.46748000       0.00000000
C       -2.02156000       2.27866000       0.00000000
C       -5.46796000       0.54375000       0.00000000
C       -4.24145000       1.19582000       0.00000000
C       -4.29904000       2.55032000       0.00000000
C       -3.07252000       3.20238000       0.00000000
H       -5.59359000      -0.53060000       0.00000000
H       -2.94690000       4.27673000       0.00000000
S       -5.89674000       3.05699000       0.00000000
S       -2.64374000       0.68914000       0.00000000
C        3.20306000      -0.31123000       0.00000000
C        7.70042000       0.49995000       0.00000000
C        4.25402000      -1.23496000       0.00000000
C        5.48053000      -0.58289000       0.00000000
C        5.42294000       0.77161000       0.00000000
C        6.64946000       1.42367000       0.00000000
H        4.12839000      -2.30931000       0.00000000
H        6.77508000       2.49802000       0.00000000
S        3.82524000       1.27828000       0.00000000
S        7.07824000      -1.08957000       0.00000000
C        9.15042000       0.49995000       0.00000000
C       13.64778000       1.31113000       0.00000000
C       10.20138000      -0.42378000       0.00000000
C       11.42789000       0.22829000       0.00000000
C       11.37030000       1.58279000       0.00000000
C       12.59682000       2.23485000       0.00000000
H       10.07575000      -1.49813000       0.00000000
H       12.72244000       3.30920000       0.00000000
S        9.77260000       2.08946000       0.00000000
S       13.02560000      -0.27839000       0.00000000
C       15.09778000       1.31113000       0.00000000
C       17.59855000       1.33677000      -0.12993000
C       15.66006000       0.04309000      -0.01550000
C       17.06718000       0.05162000      -0.08854000
H       15.05484000      -0.85196000       0.02552000
S       16.33550000       2.44375000      -0.07637000
C       17.96021000      -1.16560000      -0.12174000
C       17.20570000      -2.50208000      -0.06823000
H       18.65364000      -1.10984000       0.74564000
H       18.56014000      -1.12924000      -1.05718000
C       18.18027000      -3.68549000      -0.10611000
H       16.51790000      -2.57064000      -0.93986000
H       16.61187000      -2.55118000       0.87117000
C       17.42757000      -5.02027000      -0.05271000
H       18.87174000      -3.61947000       0.76290000
H       18.77797000      -3.63885000      -1.04325000
C       18.40248000      -6.20273000      -0.09070000
H       16.73615000      -5.08683000      -0.92174000
H       16.82997000      -5.06749000       0.88449000
C       17.65726000      -7.53324000      -0.03774000
H       19.09459000      -6.14461000       0.77763000
H       19.00082000      -6.16393000      -1.02712000
H       17.06714000      -7.60824000       0.90047000
H       18.38673000      -8.36990000      -0.06669000
H       16.97317000      -7.62759000      -0.90792000
C       -7.96892000       1.46748000       0.00000000
H       -8.26892000       2.46748000       0.01000000
H       -8.26892000       0.86748000       0.80000000
H       -8.26892000       1.06748000      -0.90000000
C       19.04855000       1.33677000      -0.12993000
H       19.34855000       0.33677000      -0.13993000
H       19.34855000       1.93677000      -0.92993000
H       19.34855000       1.73677000       0.77007000
