75
Properties=species:S:1:pos:R:3 "%%%'L':{'index':0,'type':'FG',R:'index':1,'type':'FG'}%%%"=T pbc="F F F"
C       -0.57156000       2.27866000       0.00000000
C        1.75306000      -0.31123000       0.00000000
C        1.65940000       2.30251000      -0.00000000
C        1.28845000       0.98865000       0.00000000
C       -0.10622000       0.97951000       0.00000000
C       -0.47792000      -0.33381000      -0.00000000
N        0.53085000       3.08576000      -0.00000000
N        0.65003000      -1.11769000      -0.00000000
O        2.68272000       2.98868000      -0.00000000
O       -1.52533000      -0.99533000      -0.00000000
C        0.50321000       4.54391000      -0.00000000
H       -0.54438000       4.91456000      -0.00000000
H        1.01847000       4.92769000      -0.90547000
H        1.01847000       4.92769000       0.90547000
C        0.67502000      -2.57587000      -0.00000000
H        1.72166000      -2.94887000      -0.00000000
H        0.15853000      -2.95844000      -0.90536000
H        0.15853000      -2.95845000       0.90536000
C       -6.51892000       1.46748000       0.00000000
C       -2.02156000       2.27866000       0.00000000
C       -5.46796000       0.54375000       0.00000000
C       -4.24145000       1.19582000       0.00000000
C       -4.29904000       2.55032000       0.00000000
C       -3.07252000       3.20238000       0.00000000
H       -5.59359000      -0.53060000       0.00000000
H       -2.94690000       4.27673000       0.00000000
S       -5.89674000       3.05699000       0.00000000
S       -2.64374000       0.68914000       0.00000000
C        3.20306000      -0.31123000       0.00000000
C        7.70042000       0.49995000       0.00000000
C        4.25402000      -1.23496000       0.00000000
C        5.48053000      -0.58289000       0.00000000
C        5.42294000       0.77161000       0.00000000
C        6.64946000       1.42367000       0.00000000
H        4.12839000      -2.30931000       0.00000000
H        6.77508000       2.49802000       0.00000000
S        3.82524000       1.27828000       0.00000000
S        7.07824000      -1.08957000       0.00000000
C        9.15042000       0.49995000       0.00000000
C       11.65141000       0.65476000       0.00000000
C        9.78110000      -0.73587000       0.00000000
C       11.17795000      -0.64941000       0.00000000
H        9.24464000      -1.67532000       0.00000000
H       11.82618000      -1.51553000       0.00000000
S       10.33163000       1.69661000       0.00000000
C       13.10141000       0.65476000       0.00000000
C       21.66703000      -0.47789000      -0.01959688
C       13.90994504       1.78761635      -0.00111251
S       14.07979716      -0.72253213      -0.00298055
C       15.27484557       1.47987421      -0.00431089
H       13.51887730       2.79675283       0.00035157
C       15.53988857       0.11710520      -0.00570687
C       16.84928643      -0.38227755      -0.00889659
C       16.31884725       2.40684825      -0.00606604
C       17.91915357       0.55914755      -0.01070029
C       17.64356804       1.94488289      -0.00926736
H       16.11385206       3.46998507      -0.00498091
H       18.44719374       2.67006475      -0.01061148
C       17.12486936      -1.76802254      -0.01032952
C       19.22856108       0.05976220      -0.01389004
C       19.49359443      -1.30300421      -0.01528599
C       18.44959275      -2.22997825      -0.01353084
H       16.32124366      -2.49320441      -0.00898541
H       18.65458794      -3.29311507      -0.01461597
C       20.85850462      -1.61074895      -0.01848439
S       20.68864284       0.89940213      -0.01661634
H       21.24956530      -2.61987318      -0.01994846
C       -7.96892000       1.46748000       0.00000000
H       -8.26892000       2.46748000       0.01000000
H       -8.26892000       0.86748000       0.80000000
H       -8.26892000       1.06748000      -0.90000000
C       23.11703000      -0.47789000      -0.01959688
H       23.41703000      -1.47789000      -0.02959688
H       23.41703000       0.12211000      -0.81959688
H       23.41703000      -0.07789000       0.88040312
