78
Properties=species:S:1:pos:R:3 "%%%'L':{'index':0,'type':'FG',R:'index':1,'type':'FG'}%%%"=T pbc="F F F"
C       -0.57156000       2.27866000       0.00000000
C        1.75306000      -0.31123000       0.00000000
C        1.65940000       2.30251000      -0.00000000
C        1.28845000       0.98865000       0.00000000
C       -0.10622000       0.97951000       0.00000000
C       -0.47792000      -0.33381000      -0.00000000
N        0.53085000       3.08576000      -0.00000000
N        0.65003000      -1.11769000      -0.00000000
O        2.68272000       2.98868000      -0.00000000
O       -1.52533000      -0.99533000      -0.00000000
C        0.50321000       4.54391000      -0.00000000
H       -0.54438000       4.91456000      -0.00000000
H        1.01847000       4.92769000      -0.90547000
H        1.01847000       4.92769000       0.90547000
C        0.67502000      -2.57587000      -0.00000000
H        1.72166000      -2.94887000      -0.00000000
H        0.15853000      -2.95844000      -0.90536000
H        0.15853000      -2.95845000       0.90536000
C       -6.51892000       1.46748000       0.00000000
C       -2.02156000       2.27866000       0.00000000
C       -5.46796000       0.54375000       0.00000000
C       -4.24145000       1.19582000       0.00000000
C       -4.29904000       2.55032000       0.00000000
C       -3.07252000       3.20238000       0.00000000
H       -5.59359000      -0.53060000       0.00000000
H       -2.94690000       4.27673000       0.00000000
S       -5.89674000       3.05699000       0.00000000
S       -2.64374000       0.68914000       0.00000000
C        3.20306000      -0.31123000       0.00000000
C        7.70042000       0.49995000       0.00000000
C        4.25402000      -1.23496000       0.00000000
C        5.48053000      -0.58289000       0.00000000
C        5.42294000       0.77161000       0.00000000
C        6.64946000       1.42367000       0.00000000
H        4.12839000      -2.30931000       0.00000000
H        6.77508000       2.49802000       0.00000000
S        3.82524000       1.27828000       0.00000000
S        7.07824000      -1.08957000       0.00000000
C        9.15042000       0.49995000       0.00000000
C       13.64778000       1.31113000       0.00000000
C       10.20138000      -0.42378000       0.00000000
C       11.42789000       0.22829000       0.00000000
C       11.37030000       1.58279000       0.00000000
C       12.59682000       2.23485000       0.00000000
H       10.07575000      -1.49813000       0.00000000
H       12.72244000       3.30920000       0.00000000
S        9.77260000       2.08946000       0.00000000
S       13.02560000      -0.27839000       0.00000000
C       15.09778000       1.31113000       0.00000000
C       23.66340000       0.17848000       0.00000000
C       15.58405000       0.00687000       0.00000000
S       16.40055000       2.38697000       0.00000000
C       16.98203000      -0.05071000       0.00000000
H       14.94411000      -0.86608000       0.00000000
C       17.59220000       1.19653000       0.00000000
C       18.98640000       1.33846000       0.00000000
C       17.74919000      -1.21734000       0.00000000
C       19.77478000       0.15115000       0.00000000
C       19.14846000      -1.11553000       0.00000000
H       17.27489000      -2.19081000       0.00000000
H       19.73596000      -2.02479000       0.00000000
C       19.61272000       2.60515000       0.00000000
C       21.16899000       0.29308000       0.00000000
C       21.77915000       1.54032000       0.00000000
C       21.01199000       2.70695000       0.00000000
H       19.02522000       3.51441000       0.00000000
H       21.48629000       3.68042000       0.00000000
C       23.17714000       1.48274000       0.00000000
S       22.36063000      -0.89736000       0.00000000
H       23.81707000       2.35568000       0.00000000
C       -7.96892000       1.46748000       0.00000000
H       -8.26892000       2.46748000       0.01000000
H       -8.26892000       0.86748000       0.80000000
H       -8.26892000       1.06748000      -0.90000000
C       25.11340000       0.17848000       0.00000000
H       25.41340000      -0.82152000      -0.01000000
H       25.41340000       0.77848000      -0.80000000
H       25.41340000       0.57848000       0.90000000
