120
Properties=species:S:1:pos:R:3 "%%%'L':{'index':0,'type':'FG',R:'index':1,'type':'FG'}%%%"=T pbc="F F F"
C       -0.57156000       2.27866000       0.00000000
C        1.75306000      -0.31123000       0.00000000
C        1.65940000       2.30251000      -0.00000000
C        1.28845000       0.98865000       0.00000000
C       -0.10622000       0.97951000       0.00000000
C       -0.47792000      -0.33381000      -0.00000000
N        0.53085000       3.08576000      -0.00000000
N        0.65003000      -1.11769000      -0.00000000
O        2.68272000       2.98868000      -0.00000000
O       -1.52533000      -0.99533000      -0.00000000
C        0.50321000       4.54391000      -0.00000000
H       -0.54438000       4.91456000      -0.00000000
H        1.01847000       4.92769000      -0.90547000
H        1.01847000       4.92769000       0.90547000
C        0.67502000      -2.57587000      -0.00000000
H        1.72166000      -2.94887000      -0.00000000
H        0.15853000      -2.95844000      -0.90536000
H        0.15853000      -2.95845000       0.90536000
C       -6.51892000       1.46748000       0.00000000
C       -2.02156000       2.27866000       0.00000000
C       -5.46796000       0.54375000       0.00000000
C       -4.24145000       1.19582000       0.00000000
C       -4.29904000       2.55032000       0.00000000
C       -3.07252000       3.20238000       0.00000000
H       -5.59359000      -0.53060000       0.00000000
H       -2.94690000       4.27673000       0.00000000
S       -5.89674000       3.05699000       0.00000000
S       -2.64374000       0.68914000       0.00000000
C        3.20306000      -0.31123000       0.00000000
C        7.70042000       0.49995000       0.00000000
C        4.25402000      -1.23496000       0.00000000
C        5.48053000      -0.58289000       0.00000000
C        5.42294000       0.77161000       0.00000000
C        6.64946000       1.42367000       0.00000000
H        4.12839000      -2.30931000       0.00000000
H        6.77508000       2.49802000       0.00000000
S        3.82524000       1.27828000       0.00000000
S        7.07824000      -1.08957000       0.00000000
C        9.15042000       0.49995000       0.00000000
C       11.65613000       0.58038000      -0.11126000
C        9.73996000      -0.75598000      -0.00674000
C       11.14538000      -0.70898000      -0.06917000
H        9.16314000      -1.67028000       0.03254000
S       10.36706000       1.65873000      -0.07110000
O       11.95806000      -1.79338000      -0.08831000
C       11.52393000      -3.10309000      -0.04909000
C       12.72440000      -4.03959000      -0.08752000
H       10.87085000      -3.30890000      -0.92586000
H       10.95069000      -3.28101000       0.88757000
O       12.26521000      -5.37341000      -0.04659000
H       13.36372000      -3.81528000       0.79736000
H       13.28313000      -3.84357000      -1.03169000
C       13.36931000      -6.25193000      -0.08230000
C       12.86149000      -7.68766000      -0.03560000
H       14.02928000      -6.09213000       0.80145000
H       13.94616000      -6.12198000      -1.02698000
O       13.96558000      -8.56621000      -0.07132000
H       12.20155000      -7.84766000      -0.91932000
H       12.28461000      -7.81739000       0.90911000
C       13.50652000      -9.90018000      -0.02698000
C       14.70648000     -10.83847000      -0.06664000
H       12.86453000     -10.12581000      -0.90960000
H       12.94966000     -10.09426000       0.91871000
O       14.24809000     -12.17248000      -0.02219000
H       15.34854000     -10.61246000       0.81598000
H       15.26337000     -10.64411000      -1.01239000
C       15.35371000     -13.04553000      -0.05848000
H       14.97601000     -14.08796000      -0.02269000
H       16.00943000     -12.90652000       0.82976000
H       15.92378000     -12.93856000      -1.00814000
C       13.10613000       0.58038000      -0.11126000
C       20.40109000       0.89679000      -1.79730000
C       13.12174000       1.66378000      -0.96678000
C       14.31824000       2.08290000      -1.53543000
H       12.20217000       2.19477000      -1.17527000
C       14.28361000      -0.09400000       0.17876000
C       15.54334000       1.41030000      -1.28094000
H       14.24725000       2.95638000      -2.15480000
C       15.52599000       0.28767000      -0.39674000
H       14.18068000      -0.89530000       0.88662000
C       16.77097000       1.86793000      -1.84383000
C       16.73632000      -0.39059000      -0.06434000
C       17.98127000       1.18958000      -1.51156000
C       17.96393000       0.06693000      -0.62741000
C       19.22362000       1.57125000      -2.08713000
C       19.18903000      -0.60575000      -0.37312000
H       19.32650000       2.37262000      -2.79495000
C       20.38549000      -0.18668000      -0.94189000
H       19.26006000      -1.47931000       0.24614000
H       21.30505000      -0.71777000      -0.73356000
C       16.79463000       3.04759000      -2.77689000
S       15.82048000       3.25987000      -4.14559000
C       16.46464000       4.74183000      -4.60377000
C       17.45353000       5.10021000      -3.70064000
C       17.64015000       4.15673000      -2.68406000
H       18.02456000       6.01672000      -3.77146000
H       18.36944000       4.29027000      -1.89545000
C       16.71292000      -1.56989000       0.86923000
S       17.68762000      -1.78140000       2.23756000
C       17.04468000      -3.26243000       2.69745000
C       16.05467000      -3.62193000       1.79474000
C       15.86744000      -2.67908000       0.77762000
H       15.13773000      -2.81319000      -0.01050000
H       15.48293000      -4.53802000       1.86513000
C       16.04048000       5.54143000      -5.78949000
H       15.22939000       5.01808000      -6.33774000
H       16.90443000       5.68286000      -6.47178000
H       15.66952000       6.53316000      -5.45661000
C       17.47973000      -4.05093000       3.88701000
H       16.89686000      -4.99270000       3.96756000
H       17.32298000      -3.45035000       4.80694000
H       18.55681000      -4.30078000       3.79188000
C       -7.96892000       1.46748000       0.00000000
H       -8.26892000       2.46748000       0.01000000
H       -8.26892000       0.86748000       0.80000000
H       -8.26892000       1.06748000      -0.90000000
C       21.85109000       0.89679000      -1.79730000
H       22.15109000      -0.10321000      -1.80730000
H       22.15109000       1.49679000      -2.59730000
H       22.15109000       1.29679000      -0.89730000
