88
Properties=species:S:1:pos:R:3 "%%%'L':{'index':0,'type':'FG',R:'index':1,'type':'FG'}%%%"=T pbc="F F F"
C       -0.57156000       2.27866000       0.00000000
C        1.75306000      -0.31123000       0.00000000
C        1.65940000       2.30251000      -0.00000000
C        1.28845000       0.98865000       0.00000000
C       -0.10622000       0.97951000       0.00000000
C       -0.47792000      -0.33381000      -0.00000000
N        0.53085000       3.08576000      -0.00000000
N        0.65003000      -1.11769000      -0.00000000
O        2.68272000       2.98868000      -0.00000000
O       -1.52533000      -0.99533000      -0.00000000
C        0.50321000       4.54391000      -0.00000000
H       -0.54438000       4.91456000      -0.00000000
H        1.01847000       4.92769000      -0.90547000
H        1.01847000       4.92769000       0.90547000
C        0.67502000      -2.57587000      -0.00000000
H        1.72166000      -2.94887000      -0.00000000
H        0.15853000      -2.95844000      -0.90536000
H        0.15853000      -2.95845000       0.90536000
C       -6.51892000       1.46748000       0.00000000
C       -2.02156000       2.27866000       0.00000000
C       -5.46796000       0.54375000       0.00000000
C       -4.24145000       1.19582000       0.00000000
C       -4.29904000       2.55032000       0.00000000
C       -3.07252000       3.20238000       0.00000000
H       -5.59359000      -0.53060000       0.00000000
H       -2.94690000       4.27673000       0.00000000
S       -5.89674000       3.05699000       0.00000000
S       -2.64374000       0.68914000       0.00000000
C        3.20306000      -0.31123000       0.00000000
C        7.70042000       0.49995000       0.00000000
C        4.25402000      -1.23496000       0.00000000
C        5.48053000      -0.58289000       0.00000000
C        5.42294000       0.77161000       0.00000000
C        6.64946000       1.42367000       0.00000000
H        4.12839000      -2.30931000       0.00000000
H        6.77508000       2.49802000       0.00000000
S        3.82524000       1.27828000       0.00000000
S        7.07824000      -1.08957000       0.00000000
C        9.15042000       0.49995000       0.00000000
C       11.94698000       0.40752000       0.00000000
C        9.88958000       1.68779000       0.00000000
C        9.80954000      -0.73411000       0.00000000
C       11.28786000       1.64157000       0.00000000
H        9.37967000       2.64248000       0.00000000
H       11.85969000       2.56052000       0.00000000
C       11.20782000      -0.78032000       0.00000000
H        9.23770000      -1.65305000       0.00000000
H       11.71773000      -1.73501000       0.00000000
C       13.39698000       0.40752000       0.00000000
C       15.90269000       0.48795000      -0.11126000
C       13.98652000      -0.84841000      -0.00674000
C       15.39194000      -0.80141000      -0.06917000
H       13.40970000      -1.76271000       0.03254000
S       14.61362000       1.56630000      -0.07110000
O       16.20462000      -1.88581000      -0.08831000
C       15.77049000      -3.19552000      -0.04909000
C       16.97096000      -4.13202000      -0.08752000
H       15.11741000      -3.40133000      -0.92586000
H       15.19725000      -3.37344000       0.88757000
O       16.51177000      -5.46584000      -0.04659000
H       17.61028000      -3.90771000       0.79736000
H       17.52969000      -3.93600000      -1.03169000
C       17.61587000      -6.34436000      -0.08230000
C       17.10805000      -7.78009000      -0.03560000
H       18.27584000      -6.18456000       0.80145000
H       18.19272000      -6.21441000      -1.02698000
O       18.21214000      -8.65864000      -0.07132000
H       16.44811000      -7.94009000      -0.91932000
H       16.53117000      -7.90982000       0.90911000
C       17.75308000      -9.99261000      -0.02698000
C       18.95304000     -10.93090000      -0.06664000
H       17.11109000     -10.21824000      -0.90960000
H       17.19622000     -10.18669000       0.91871000
O       18.49465000     -12.26491000      -0.02219000
H       19.59510000     -10.70489000       0.81598000
H       19.50993000     -10.73654000      -1.01239000
C       19.60027000     -13.13796000      -0.05848000
H       19.22257000     -14.18039000      -0.02269000
H       20.25599000     -12.99895000       0.82976000
H       20.17034000     -13.03099000      -1.00814000
C       -7.96892000       1.46748000       0.00000000
H       -8.26892000       2.46748000       0.01000000
H       -8.26892000       0.86748000       0.80000000
H       -8.26892000       1.06748000      -0.90000000
C       17.35269000       0.48795000      -0.11126000
H       17.65269000      -0.51205000      -0.12126000
H       17.65269000       1.08795000      -0.91126000
H       17.65269000       0.88795000       0.78874000
