93
Properties=species:S:1:pos:R:3 "%%%'L':{'index':0,'type':'FG',R:'index':1,'type':'FG'}%%%"=T pbc="F F F"
C       -0.57156000       2.27866000       0.00000000
C        1.75306000      -0.31123000       0.00000000
C        1.65940000       2.30251000      -0.00000000
C        1.28845000       0.98865000       0.00000000
C       -0.10622000       0.97951000       0.00000000
C       -0.47792000      -0.33381000      -0.00000000
N        0.53085000       3.08576000      -0.00000000
N        0.65003000      -1.11769000      -0.00000000
O        2.68272000       2.98868000      -0.00000000
O       -1.52533000      -0.99533000      -0.00000000
C        0.50321000       4.54391000      -0.00000000
H       -0.54438000       4.91456000      -0.00000000
H        1.01847000       4.92769000      -0.90547000
H        1.01847000       4.92769000       0.90547000
C        0.67502000      -2.57587000      -0.00000000
H        1.72166000      -2.94887000      -0.00000000
H        0.15853000      -2.95844000      -0.90536000
H        0.15853000      -2.95845000       0.90536000
C       -6.51892000       1.46748000       0.00000000
C       -2.02156000       2.27866000       0.00000000
C       -5.46796000       0.54375000       0.00000000
C       -4.24145000       1.19582000       0.00000000
C       -4.29904000       2.55032000       0.00000000
C       -3.07252000       3.20238000       0.00000000
H       -5.59359000      -0.53060000       0.00000000
H       -2.94690000       4.27673000       0.00000000
S       -5.89674000       3.05699000       0.00000000
S       -2.64374000       0.68914000       0.00000000
C        3.20306000      -0.31123000       0.00000000
C        7.70042000       0.49995000       0.00000000
C        4.25402000      -1.23496000       0.00000000
C        5.48053000      -0.58289000       0.00000000
C        5.42294000       0.77161000       0.00000000
C        6.64946000       1.42367000       0.00000000
H        4.12839000      -2.30931000       0.00000000
H        6.77508000       2.49802000       0.00000000
S        3.82524000       1.27828000       0.00000000
S        7.07824000      -1.08957000       0.00000000
C        9.15042000       0.49995000       0.00000000
C       17.71604000      -0.63270000       0.00000000
C        9.63669000      -0.80431000       0.00000000
S       10.45319000       1.57579000       0.00000000
C       11.03467000      -0.86189000       0.00000000
H        8.99675000      -1.67726000       0.00000000
C       11.64484000       0.38535000       0.00000000
C       13.03904000       0.52728000       0.00000000
C       11.80183000      -2.02852000       0.00000000
C       13.82742000      -0.66003000       0.00000000
C       13.20110000      -1.92671000       0.00000000
H       11.32753000      -3.00199000       0.00000000
H       13.78860000      -2.83597000       0.00000000
C       13.66536000       1.79397000       0.00000000
C       15.22163000      -0.51810000       0.00000000
C       15.83179000       0.72914000       0.00000000
C       15.06463000       1.89577000       0.00000000
H       13.07786000       2.70323000       0.00000000
H       15.53893000       2.86924000       0.00000000
C       17.22978000       0.67156000       0.00000000
S       16.41327000      -1.70854000       0.00000000
H       17.86971000       1.54450000       0.00000000
C       19.16604000      -0.63270000       0.00000000
C       21.66681000      -0.60706000      -0.12993000
C       19.72832000      -1.90074000      -0.01550000
C       21.13544000      -1.89221000      -0.08854000
H       19.12310000      -2.79579000       0.02552000
S       20.40376000       0.49992000      -0.07637000
C       22.02847000      -3.10943000      -0.12174000
C       21.27396000      -4.44591000      -0.06823000
H       22.72190000      -3.05367000       0.74564000
H       22.62840000      -3.07307000      -1.05718000
C       22.24853000      -5.62932000      -0.10611000
H       20.58616000      -4.51447000      -0.93986000
H       20.68013000      -4.49501000       0.87117000
C       21.49583000      -6.96410000      -0.05271000
H       22.94000000      -5.56330000       0.76290000
H       22.84623000      -5.58268000      -1.04325000
C       22.47074000      -8.14656000      -0.09070000
H       20.80441000      -7.03066000      -0.92174000
H       20.89823000      -7.01132000       0.88449000
C       21.72552000      -9.47707000      -0.03774000
H       23.16285000      -8.08844000       0.77763000
H       23.06908000      -8.10776000      -1.02712000
H       21.13540000      -9.55207000       0.90047000
H       22.45499000     -10.31373000      -0.06669000
H       21.04143000      -9.57142000      -0.90792000
C       -7.96892000       1.46748000       0.00000000
H       -8.26892000       2.46748000       0.01000000
H       -8.26892000       0.86748000       0.80000000
H       -8.26892000       1.06748000      -0.90000000
C       23.11681000      -0.60706000      -0.12993000
H       23.41681000      -1.60706000      -0.13993000
H       23.41681000      -0.00706000      -0.92993000
H       23.41681000      -0.20706000       0.77007000
