90
Properties=species:S:1:pos:R:3 "%%%'L':{'index':0,'type':'FG',R:'index':1,'type':'FG'}%%%"=T pbc="F F F"
C       -0.57156000       2.27866000       0.00000000
C        1.75306000      -0.31123000       0.00000000
C        1.65940000       2.30251000      -0.00000000
C        1.28845000       0.98865000       0.00000000
C       -0.10622000       0.97951000       0.00000000
C       -0.47792000      -0.33381000      -0.00000000
N        0.53085000       3.08576000      -0.00000000
N        0.65003000      -1.11769000      -0.00000000
O        2.68272000       2.98868000      -0.00000000
O       -1.52533000      -0.99533000      -0.00000000
C        0.50321000       4.54391000      -0.00000000
H       -0.54438000       4.91456000      -0.00000000
H        1.01847000       4.92769000      -0.90547000
H        1.01847000       4.92769000       0.90547000
C        0.67502000      -2.57587000      -0.00000000
H        1.72166000      -2.94887000      -0.00000000
H        0.15853000      -2.95844000      -0.90536000
H        0.15853000      -2.95845000       0.90536000
C       -6.51892000       1.46748000       0.00000000
C       -2.02156000       2.27866000       0.00000000
C       -5.46796000       0.54375000       0.00000000
C       -4.24145000       1.19582000       0.00000000
C       -4.29904000       2.55032000       0.00000000
C       -3.07252000       3.20238000       0.00000000
H       -5.59359000      -0.53060000       0.00000000
H       -2.94690000       4.27673000       0.00000000
S       -5.89674000       3.05699000       0.00000000
S       -2.64374000       0.68914000       0.00000000
C        3.20306000      -0.31123000       0.00000000
C        7.70042000       0.49995000       0.00000000
C        4.25402000      -1.23496000       0.00000000
C        5.48053000      -0.58289000       0.00000000
C        5.42294000       0.77161000       0.00000000
C        6.64946000       1.42367000       0.00000000
H        4.12839000      -2.30931000       0.00000000
H        6.77508000       2.49802000       0.00000000
S        3.82524000       1.27828000       0.00000000
S        7.07824000      -1.08957000       0.00000000
C        9.15042000       0.49995000       0.00000000
C       17.71604000      -0.63270000       0.00000000
C        9.63669000      -0.80431000       0.00000000
S       10.45319000       1.57579000       0.00000000
C       11.03467000      -0.86189000       0.00000000
H        8.99675000      -1.67726000       0.00000000
C       11.64484000       0.38535000       0.00000000
C       13.03904000       0.52728000       0.00000000
C       11.80183000      -2.02852000       0.00000000
C       13.82742000      -0.66003000       0.00000000
C       13.20110000      -1.92671000       0.00000000
H       11.32753000      -3.00199000       0.00000000
H       13.78860000      -2.83597000       0.00000000
C       13.66536000       1.79397000       0.00000000
C       15.22163000      -0.51810000       0.00000000
C       15.83179000       0.72914000       0.00000000
C       15.06463000       1.89577000       0.00000000
H       13.07786000       2.70323000       0.00000000
H       15.53893000       2.86924000       0.00000000
C       17.22978000       0.67156000       0.00000000
S       16.41327000      -1.70854000       0.00000000
H       17.86971000       1.54450000       0.00000000
C       19.16604000      -0.63270000       0.00000000
C       27.73166000      -1.76535000       0.00000000
C       19.65231000      -1.93696000       0.00000000
S       20.46881000       0.44314000       0.00000000
C       21.05029000      -1.99454000       0.00000000
H       19.01237000      -2.80991000       0.00000000
C       21.66046000      -0.74730000       0.00000000
C       23.05466000      -0.60537000       0.00000000
C       21.81745000      -3.16117000       0.00000000
C       23.84304000      -1.79268000       0.00000000
C       23.21672000      -3.05936000       0.00000000
H       21.34315000      -4.13464000       0.00000000
H       23.80422000      -3.96862000       0.00000000
C       23.68098000       0.66132000       0.00000000
C       25.23725000      -1.65075000       0.00000000
C       25.84741000      -0.40351000       0.00000000
C       25.08025000       0.76312000       0.00000000
H       23.09348000       1.57058000       0.00000000
H       25.55455000       1.73659000       0.00000000
C       27.24540000      -0.46109000       0.00000000
S       26.42889000      -2.84119000       0.00000000
H       27.88533000       0.41185000       0.00000000
C       -7.96892000       1.46748000       0.00000000
H       -8.26892000       2.46748000       0.01000000
H       -8.26892000       0.86748000       0.80000000
H       -8.26892000       1.06748000      -0.90000000
C       29.18166000      -1.76535000       0.00000000
H       29.48166000      -2.76535000      -0.01000000
H       29.48166000      -1.16535000      -0.80000000
H       29.48166000      -1.36535000       0.90000000
