85
Properties=species:S:1:pos:R:3 "%%%'L':{'index':0,'type':'FG',R:'index':1,'type':'FG'}%%%"=T pbc="F F F"
C       -0.57156000       2.27866000       0.00000000
C        1.75306000      -0.31123000       0.00000000
C        1.65940000       2.30251000      -0.00000000
C        1.28845000       0.98865000       0.00000000
C       -0.10622000       0.97951000       0.00000000
C       -0.47792000      -0.33381000      -0.00000000
N        0.53085000       3.08576000      -0.00000000
N        0.65003000      -1.11769000      -0.00000000
O        2.68272000       2.98868000      -0.00000000
O       -1.52533000      -0.99533000      -0.00000000
C        0.50321000       4.54391000      -0.00000000
H       -0.54438000       4.91456000      -0.00000000
H        1.01847000       4.92769000      -0.90547000
H        1.01847000       4.92769000       0.90547000
C        0.67502000      -2.57587000      -0.00000000
H        1.72166000      -2.94887000      -0.00000000
H        0.15853000      -2.95844000      -0.90536000
H        0.15853000      -2.95845000       0.90536000
C       -6.51892000       1.46748000       0.00000000
C       -2.02156000       2.27866000       0.00000000
C       -5.46796000       0.54375000       0.00000000
C       -4.24145000       1.19582000       0.00000000
C       -4.29904000       2.55032000       0.00000000
C       -3.07252000       3.20238000       0.00000000
H       -5.59359000      -0.53060000       0.00000000
H       -2.94690000       4.27673000       0.00000000
S       -5.89674000       3.05699000       0.00000000
S       -2.64374000       0.68914000       0.00000000
C        3.20306000      -0.31123000       0.00000000
C        7.70042000       0.49995000       0.00000000
C        4.25402000      -1.23496000       0.00000000
C        5.48053000      -0.58289000       0.00000000
C        5.42294000       0.77161000       0.00000000
C        6.64946000       1.42367000       0.00000000
H        4.12839000      -2.30931000       0.00000000
H        6.77508000       2.49802000       0.00000000
S        3.82524000       1.27828000       0.00000000
S        7.07824000      -1.08957000       0.00000000
C        9.15042000       0.49995000       0.00000000
C       15.40113000       0.85108000      -0.10614000
C       14.78051000      -0.41120000      -0.13089000
C        9.90838000      -0.68427000      -0.04814000
S       10.20067000       1.85972000       0.01957000
C       11.57830000       0.91852000      -0.03311000
C       11.26728000      -0.39841000      -0.06519000
H        9.48769000      -1.68040000      -0.06896000
C       12.94279000       0.99377000      -0.05632000
C       13.39708000      -0.28149000      -0.10144000
N       12.37676000      -1.17699000      -0.10821000
S       14.20654000       2.08409000      -0.04847000
H       15.31435000      -1.35069000      -0.16783000
C       12.43937000      -2.63363000      -0.15126000
H       13.49248000      -2.98208000      -0.18086000
H       11.91500000      -3.00192000      -1.05773000
H       11.94863000      -3.05394000       0.75141000
C       16.85113000       0.85108000      -0.10614000
C       25.41675000      -0.28157000      -0.12573688
C       17.65966504       1.98393635      -0.10725251
S       17.82951716      -0.52621213      -0.10912055
C       19.02456557       1.67619421      -0.11045089
H       17.26859730       2.99307283      -0.10578843
C       19.28960857       0.31342520      -0.11184687
C       20.59900643      -0.18595755      -0.11503659
C       20.06856725       2.60316825      -0.11220604
C       21.66887357       0.75546755      -0.11684029
C       21.39328804       2.14120289      -0.11540736
H       19.86357206       3.66630507      -0.11112091
H       22.19691374       2.86638475      -0.11675148
C       20.87458936      -1.57170254      -0.11646952
C       22.97828108       0.25608220      -0.12003004
C       23.24331443      -1.10668421      -0.12142599
C       22.19931275      -2.03365825      -0.11967084
H       20.07096366      -2.29688441      -0.11512541
H       22.40430794      -3.09679507      -0.12075597
C       24.60822462      -1.41442895      -0.12462439
S       24.43836284       1.09572213      -0.12275634
H       24.99928530      -2.42355318      -0.12608846
C       -7.96892000       1.46748000       0.00000000
H       -8.26892000       2.46748000       0.01000000
H       -8.26892000       0.86748000       0.80000000
H       -8.26892000       1.06748000      -0.90000000
C       26.86675000      -0.28157000      -0.12573688
H       27.16675000      -1.28157000      -0.13573688
H       27.16675000       0.31843000      -0.92573688
H       27.16675000       0.11843000       0.77426312
