69
Properties=species:S:1:pos:R:3 "%%%'L':{'index':0,'type':'FG',R:'index':1,'type':'FG'}%%%"=T pbc="F F F"
C       -0.57156000       2.27866000       0.00000000
C        1.75306000      -0.31123000       0.00000000
C        1.65940000       2.30251000      -0.00000000
C        1.28845000       0.98865000       0.00000000
C       -0.10622000       0.97951000       0.00000000
C       -0.47792000      -0.33381000      -0.00000000
N        0.53085000       3.08576000      -0.00000000
N        0.65003000      -1.11769000      -0.00000000
O        2.68272000       2.98868000      -0.00000000
O       -1.52533000      -0.99533000      -0.00000000
C        0.50321000       4.54391000      -0.00000000
H       -0.54438000       4.91456000      -0.00000000
H        1.01847000       4.92769000      -0.90547000
H        1.01847000       4.92769000       0.90547000
C        0.67502000      -2.57587000      -0.00000000
H        1.72166000      -2.94887000      -0.00000000
H        0.15853000      -2.95844000      -0.90536000
H        0.15853000      -2.95845000       0.90536000
C       -6.51892000       1.46748000       0.00000000
C       -2.02156000       2.27866000       0.00000000
C       -5.46796000       0.54375000       0.00000000
C       -4.24145000       1.19582000       0.00000000
C       -4.29904000       2.55032000       0.00000000
C       -3.07252000       3.20238000       0.00000000
H       -5.59359000      -0.53060000       0.00000000
H       -2.94690000       4.27673000       0.00000000
S       -5.89674000       3.05699000       0.00000000
S       -2.64374000       0.68914000       0.00000000
C        3.20306000      -0.31123000       0.00000000
C        7.70042000       0.49995000       0.00000000
C        4.25402000      -1.23496000       0.00000000
C        5.48053000      -0.58289000       0.00000000
C        5.42294000       0.77161000       0.00000000
C        6.64946000       1.42367000       0.00000000
H        4.12839000      -2.30931000       0.00000000
H        6.77508000       2.49802000       0.00000000
S        3.82524000       1.27828000       0.00000000
S        7.07824000      -1.08957000       0.00000000
C        9.15042000       0.49995000       0.00000000
C       13.64778000       1.31113000       0.00000000
C       10.20138000      -0.42378000       0.00000000
C       11.42789000       0.22829000       0.00000000
C       11.37030000       1.58279000       0.00000000
C       12.59682000       2.23485000       0.00000000
H       10.07575000      -1.49813000       0.00000000
H       12.72244000       3.30920000       0.00000000
S        9.77260000       2.08946000       0.00000000
S       13.02560000      -0.27839000       0.00000000
C       15.09778000       1.31113000       0.00000000
C       17.58952000       1.33925000       0.49157000
C       15.67063000       0.05693000       0.12367000
C       17.04317000       0.07236000       0.37782000
S       16.33194000       2.43915000       0.24141000
O       17.72247000      -1.09436000       0.49254000
O       15.01601000      -1.12468000       0.01818000
C       15.63606000      -2.28875000       0.46344000
C       17.12707000      -2.27467000       0.05651000
H       17.67076000      -3.15371000       0.46126000
H       17.17985000      -2.30810000      -1.05384000
H       15.11100000      -3.18218000       0.06566000
H       15.58390000      -2.31454000       1.57402000
C       -7.96892000       1.46748000       0.00000000
H       -8.26892000       2.46748000       0.01000000
H       -8.26892000       0.86748000       0.80000000
H       -8.26892000       1.06748000      -0.90000000
C       19.03952000       1.33925000       0.49157000
H       19.33952000       0.33925000       0.48157000
H       19.33952000       1.93925000      -0.30843000
H       19.33952000       1.73925000       1.39157000
