100
Properties=species:S:1:pos:R:3 "%%%'L':{'index':0,'type':'FG',R:'index':1,'type':'FG'}%%%"=T pbc="F F F"
C       -0.57156000       2.27866000       0.00000000
C        1.75306000      -0.31123000       0.00000000
C        1.65940000       2.30251000      -0.00000000
C        1.28845000       0.98865000       0.00000000
C       -0.10622000       0.97951000       0.00000000
C       -0.47792000      -0.33381000      -0.00000000
N        0.53085000       3.08576000      -0.00000000
N        0.65003000      -1.11769000      -0.00000000
O        2.68272000       2.98868000      -0.00000000
O       -1.52533000      -0.99533000      -0.00000000
C        0.50321000       4.54391000      -0.00000000
H       -0.54438000       4.91456000      -0.00000000
H        1.01847000       4.92769000      -0.90547000
H        1.01847000       4.92769000       0.90547000
C        0.67502000      -2.57587000      -0.00000000
H        1.72166000      -2.94887000      -0.00000000
H        0.15853000      -2.95844000      -0.90536000
H        0.15853000      -2.95845000       0.90536000
C       -6.51892000       1.46748000       0.00000000
C       -2.02156000       2.27866000       0.00000000
C       -5.46796000       0.54375000       0.00000000
C       -4.24145000       1.19582000       0.00000000
C       -4.29904000       2.55032000       0.00000000
C       -3.07252000       3.20238000       0.00000000
H       -5.59359000      -0.53060000       0.00000000
H       -2.94690000       4.27673000       0.00000000
S       -5.89674000       3.05699000       0.00000000
S       -2.64374000       0.68914000       0.00000000
C        3.20306000      -0.31123000       0.00000000
C        7.70042000       0.49995000       0.00000000
C        4.25402000      -1.23496000       0.00000000
C        5.48053000      -0.58289000       0.00000000
C        5.42294000       0.77161000       0.00000000
C        6.64946000       1.42367000       0.00000000
H        4.12839000      -2.30931000       0.00000000
H        6.77508000       2.49802000       0.00000000
S        3.82524000       1.27828000       0.00000000
S        7.07824000      -1.08957000       0.00000000
C        9.15042000       0.49995000       0.00000000
C       17.71604000      -0.63270000       0.00000000
C        9.63669000      -0.80431000       0.00000000
S       10.45319000       1.57579000       0.00000000
C       11.03467000      -0.86189000       0.00000000
H        8.99675000      -1.67726000       0.00000000
C       11.64484000       0.38535000       0.00000000
C       13.03904000       0.52728000       0.00000000
C       11.80183000      -2.02852000       0.00000000
C       13.82742000      -0.66003000       0.00000000
C       13.20110000      -1.92671000       0.00000000
H       11.32753000      -3.00199000       0.00000000
H       13.78860000      -2.83597000       0.00000000
C       13.66536000       1.79397000       0.00000000
C       15.22163000      -0.51810000       0.00000000
C       15.83179000       0.72914000       0.00000000
C       15.06463000       1.89577000       0.00000000
H       13.07786000       2.70323000       0.00000000
H       15.53893000       2.86924000       0.00000000
C       17.22978000       0.67156000       0.00000000
S       16.41327000      -1.70854000       0.00000000
H       17.86971000       1.54450000       0.00000000
C       19.16604000      -0.63270000       0.00000000
C       21.67175000      -0.55227000      -0.11126000
C       19.75558000      -1.88863000      -0.00674000
C       21.16100000      -1.84163000      -0.06917000
H       19.17876000      -2.80293000       0.03254000
S       20.38268000       0.52608000      -0.07110000
O       21.97368000      -2.92603000      -0.08831000
C       21.53955000      -4.23574000      -0.04909000
C       22.74002000      -5.17224000      -0.08752000
H       20.88647000      -4.44155000      -0.92586000
H       20.96631000      -4.41366000       0.88757000
O       22.28083000      -6.50606000      -0.04659000
H       23.37934000      -4.94793000       0.79736000
H       23.29875000      -4.97622000      -1.03169000
C       23.38493000      -7.38458000      -0.08230000
C       22.87711000      -8.82031000      -0.03560000
H       24.04490000      -7.22478000       0.80145000
H       23.96178000      -7.25463000      -1.02698000
O       23.98120000      -9.69886000      -0.07132000
H       22.21717000      -8.98031000      -0.91932000
H       22.30023000      -8.95004000       0.90911000
C       23.52214000     -11.03283000      -0.02698000
C       24.72210000     -11.97112000      -0.06664000
H       22.88015000     -11.25846000      -0.90960000
H       22.96528000     -11.22691000       0.91871000
O       24.26371000     -13.30513000      -0.02219000
H       25.36416000     -11.74511000       0.81598000
H       25.27899000     -11.77676000      -1.01239000
C       25.36933000     -14.17818000      -0.05848000
H       24.99163000     -15.22061000      -0.02269000
H       26.02505000     -14.03917000       0.82976000
H       25.93940000     -14.07121000      -1.00814000
C       -7.96892000       1.46748000       0.00000000
H       -8.26892000       2.46748000       0.01000000
H       -8.26892000       0.86748000       0.80000000
H       -8.26892000       1.06748000      -0.90000000
C       23.12175000      -0.55227000      -0.11126000
H       23.42175000      -1.55227000      -0.12126000
H       23.42175000       0.04773000      -0.91126000
H       23.42175000      -0.15227000       0.78874000
