136
 example-polymer example-polymer.ff
 H           1.000000        1.000000        0.000000
 C          -0.100000        1.000000        0.000000
 C          -0.810000        1.000000        1.259780
 C          -0.770000        1.001520       -1.204080
 C          -0.071000        0.943420        2.523340
 C          -2.210000        1.057030        1.218920
 H          -0.198000        1.002700       -2.139830
 C          -2.211000        1.003160       -1.274390
 S           1.661000        0.580540        2.544780
 C          -0.517000        1.152770        3.836450
 H          -2.776000        1.059780        2.154450
 C          -2.940000        1.114130       -0.013550
 C          -2.908000        1.003210       -2.517090
 C           1.770000        0.693630        4.309170
 O          -1.818000        1.467720        4.161610
 C           0.503000        1.010050        4.833650
 C          -4.372000        1.173400       -0.028310
 C          -2.144000        1.001530       -3.797970
 C          -4.341000        1.006450       -2.528480
 C           3.054000        0.474370        4.949190
 C          -1.954000        2.064990        5.465070
 O           0.257000        1.253790        6.164190
 C          -5.127000        1.234100        1.256850
 C          -5.067000        1.227780       -1.273340
 S          -1.968000        2.482620       -4.762860
 C          -1.472000       -0.043230       -4.415310
 C          -5.082000        1.005070       -3.757260
 C           4.337000        0.760780        4.440220
 N           3.226000       -0.108230        6.213220
 H          -3.034000        2.041870        5.705920
 H          -1.614000        3.124220        5.431140
 C          -1.139000        1.286250        6.498470
 S          -5.870000       -0.220320        1.953270
 C          -5.362000        2.320850        2.084700
 C          -6.506000        1.289990       -1.343560
 C          -1.010000        1.659160       -5.992940
 H          -1.435000       -1.052340       -3.983620
 C          -0.840000        0.324590       -5.651060
 H          -4.512000        0.958000       -4.691360
 C          -6.479000        1.009620       -3.801390
 C           5.321000        0.380260        5.409350
 C           5.014000        1.345950        3.285220
 C           4.643000       -0.189050        6.572290
 C           2.230000       -0.767030        7.049020
 H          -1.235000        1.736540        7.504100
 H          -1.500000        0.234310        6.554090
 C          -6.496000        0.668190        3.339700
 H          -4.984000        3.325580        1.854010
 C          -6.135000        2.002760        3.252320
 H          -7.074000        1.338340       -0.406470
 C          -7.175000        1.341020       -2.551370
 C          -0.488000        2.398480       -7.198990
 H          -0.267000       -0.377500       -6.271960
 C          -7.213000        1.006400       -5.097070
 C           6.604000        0.664950        4.900020
 O           4.625000        1.850790        2.231190
 N           6.432000        1.223150        3.623990
 O           5.028000       -0.667100        7.638540
 H           1.619000       -0.039760        7.615660
 H           1.552000       -1.392410        6.433200
 H           2.789000       -1.402900        7.761060
 C          -7.295000       -0.025470        4.414500
 H          -6.415000        2.743060        4.015050
 H          -8.272000        1.388760       -2.555160
 H           0.085000        1.705060       -7.845930
 H          -1.305000        2.850850       -7.800060
 H           0.202000        3.222800       -6.916350
 C          -6.630000        1.599660       -6.277160
 C          -8.478000        0.428400       -5.216720
 C           7.893000        0.449350        5.530780
 C           7.434000        1.879880        2.791880
 H          -8.228000       -0.477930        4.014330
 H          -7.593000        0.704100        5.192680
 H          -6.722000       -0.843550        4.901270
 H          -5.652000        2.094280       -6.201770
 C          -7.299000        1.602320       -7.484690
 H          -8.948000       -0.035350       -4.340560
 C          -9.211000        0.408350       -6.453020
 S           8.043000        0.617990        7.295380
 C           9.126000        0.036810        5.000200
 H           6.878000        2.471440        2.042260
 H           8.071000        2.554700        3.400150
 H           8.086000        1.149930        2.277460
 H          -6.829000        2.062520       -8.362690
 C          -8.608000        1.016080       -7.629840
 C         -10.505000       -0.193220       -6.544900
 C           9.754000        0.231860        7.282520
 O           9.345000       -0.260240        3.675160
 C          10.157000       -0.110790        5.992040
 C          -9.303000        1.014260       -8.875440
 C         -11.125000       -0.818550       -5.340370
 C         -11.201000       -0.194410       -7.791890
 C          10.583000        0.191200        8.536810
 C          10.559000       -1.008000        3.446620
 O          11.440000       -0.509170        5.674380
 C          -8.677000        1.633140      -10.079840
 C         -10.601000        0.419900       -8.964190
 S         -10.781000       -2.504110       -4.906220
 C         -11.996000       -0.262640       -4.415520
 C         -12.506000       -0.789140       -7.933540
 H          10.398000        1.075370        9.181230
 H          11.658000        0.172900        8.271390
 H          10.366000       -0.710470        9.149750
 H          10.767000       -0.936170        2.361720
 H          10.393000       -2.076150        3.713620
 C          11.717000       -0.436670        4.270070
 S          -9.059000        3.301510      -10.553100
 C          -7.765000        1.088910      -10.970850
 C         -11.339000        0.394260      -10.201200
 C         -11.824000       -2.431360       -3.485850
 H         -12.341000        0.777220       -4.487650
 C         -12.389000       -1.170060       -3.374510
 H         -12.969000       -1.251510       -7.052430
 C         -13.172000       -0.787650       -9.144080
 H          12.646000       -1.013300        4.093450
 H          11.899000        0.625610        3.984670
 C          -7.983000        3.233590      -11.949440
 H          -7.385000        0.064400      -10.866740
 C          -7.378000        1.985910      -12.024180
 H         -10.874000        0.848430      -11.086580
 C         -12.599000       -0.179100      -10.308410
 C         -12.000000       -3.628040       -2.585800
 H         -13.073000       -0.898890       -2.557690
 H         -14.168000       -1.252930       -9.215530
 C          -7.819000        4.419290      -12.865410
 H          -6.666000        1.720510      -12.817950
 C         -13.361000       -0.198940      -11.618820
 H         -12.433000       -4.497650       -3.124770
 H         -12.689000       -3.375740       -1.755710
 H         -11.038000       -3.964340       -2.144560
 H          -7.104000        4.170970      -13.675460
 H          -8.781000        4.732040      -13.323150
 H          -7.408000        5.305570      -12.335960
 H         -12.790000        0.287440      -12.433890
 H         -14.349000        0.298290      -11.519790
 H         -13.564000       -1.240470      -11.949390
