17
%%%{'L':{'index':0,'type':'FG'},'R':{'index':1,'type':'FG'}}%%%
C         -2.79008       -0.13857        1.02037
C          3.46063        0.21256        0.91423
C          2.84001       -1.04972        0.88948
C         -2.03212       -1.32279        0.97223
S         -1.73983        1.22120        1.03994
C         -0.36220        0.28000        0.98726
C         -0.67322       -1.03693        0.95518
H         -2.45281       -2.31892        0.95141
C          1.00229        0.35525        0.96405
C          1.45658       -0.92001        0.91893
N          0.43626       -1.81551        0.91216
S          2.26604        1.44557        0.97190
H          3.37385       -1.98921        0.85254
C          0.49887       -3.27215        0.86911
H          1.55198       -3.62060        0.83951
H         -0.02550       -3.64044       -0.03736
H          0.00813       -3.69246        1.77178
