7
%%%{'L':{'index':0,'type':'FG'},'R':{'index':1,'type':'FG'}}%%%
C         -0.74824        0.36501       -0.00000
C          1.75275        0.51982        0.00000
C         -0.11756       -0.87081        0.00000
C          1.27929       -0.78435        0.00000
H         -0.65402       -1.81026       -0.00000
H          1.92752       -1.65047        0.00000
S          0.43297        1.56167        0.00000
