21
Properties=species:S:1:pos:R:3:occupancy:R:1:bfactor:R:1:residuenames:S:1:atomtypes:S:1:residuenumbers:I:1 pbc="F F F"
C       -1.65200000       1.27400000      -0.03700000       1.00000000       0.00000000 UNL  C         1
C       -1.57900000      -0.11900000      -0.02400000       1.00000000       0.00000000 UNL  C         1
C       -0.48400000       2.05600000      -0.01400000       1.00000000       0.00000000 UNL  C         1
H       -2.62800000       1.74300000      -0.06700000       1.00000000       0.00000000 UNL  H         1
C       -0.33500000      -0.76000000       0.01400000       1.00000000       0.00000000 UNL  C         1
H       -2.49600000      -0.69600000      -0.04300000       1.00000000       0.00000000 UNL  H         1
C        0.77900000       1.41200000       0.02400000       1.00000000       0.00000000 UNL  C         1
C        0.83500000       0.00800000       0.03800000       1.00000000       0.00000000 UNL  C         1
H        1.79800000      -0.49000000       0.06700000       1.00000000       0.00000000 UNL  H         1
C       -0.61300000       3.55700000      -0.02900000       1.00000000       0.00000000 UNL  C         1
H       -1.67500000       3.88000000      -0.06000000       1.00000000       0.00000000 UNL  H         1
H       -0.10700000       3.96800000      -0.92800000       1.00000000       0.00000000 UNL  H         1
H       -0.15400000       3.98400000       0.88700000       1.00000000       0.00000000 UNL  H         1
C        2.08500000       2.16400000       0.05200000       1.00000000       0.00000000 UNL  C         1
H        1.96200000       3.26400000       0.04000000       1.00000000       0.00000000 UNL  H         1
H        2.69300000       1.88200000      -0.83400000       1.00000000       0.00000000 UNL  H         1
H        2.64600000       1.89700000       0.97200000       1.00000000       0.00000000 UNL  H         1
C       -0.24300000      -2.25800000       0.02900000       1.00000000       0.00000000 UNL  C         1
H       -1.24800000      -2.73000000       0.00600000       1.00000000       0.00000000 UNL  H         1
H        0.28000000      -2.59000000       0.95000000       1.00000000       0.00000000 UNL  H         1
H        0.32700000      -2.60500000      -0.85900000       1.00000000       0.00000000 UNL  H         1
