6
Properties=species:S:1:pos:R:3:occupancy:R:1:bfactor:R:1:residuenames:S:1:atomtypes:S:1:residuenumbers:I:1 pbc="F F F"
C       -1.52500000       0.43600000       0.00000000       1.00000000       0.00000000 UNL  C         1
C       -0.06200000       0.44600000       0.00000000       1.00000000       0.00000000 UNL  C         1
H       -1.90200000       1.35000000       0.50500000       1.00000000       0.00000000 UNL  H         1
H       -1.89000000      -0.46100000       0.54000000       1.00000000       0.00000000 UNL  H         1
H       -1.89600000       0.41400000      -1.04600000       1.00000000       0.00000000 UNL  H         1
N        1.09500000       0.45400000       0.00000000       1.00000000       0.00000000 UNL  N         1
