5
Properties=species:S:1:pos:R:3:occupancy:R:1:bfactor:R:1:residuenames:S:1:atomtypes:S:1:residuenumbers:I:1 pbc="F F F"
C       -0.02300000       0.26100000      -0.12700000       1.00000000       0.00000000 UNL  C         1
Cl      -1.25100000       1.54600000      -0.09100000       1.00000000       0.00000000 UNL  CL        1
Cl       1.44700000       0.82400000       0.70000000       1.00000000       0.00000000 UNL  CL        1
Cl      -0.65100000      -1.18300000       0.69800000       1.00000000       0.00000000 UNL  CL        1
H        0.21900000       0.01000000      -1.18000000       1.00000000       0.00000000 UNL  H         1
