18
Properties=species:S:1:pos:R:3:occupancy:R:1:bfactor:R:1:residuenames:S:1:atomtypes:S:1:residuenumbers:I:1 pbc="F F F"
C       -1.66600000       1.29100000      -0.04700000       1.00000000       0.00000000 UNL  C         1
C       -1.61500000      -0.10600000      -0.02200000       1.00000000       0.00000000 UNL  C         1
C       -0.48400000       2.05300000      -0.02100000       1.00000000       0.00000000 UNL  C         1
H       -2.63100000       1.78200000      -0.08700000       1.00000000       0.00000000 UNL  H         1
C       -0.38400000      -0.76100000       0.03100000       1.00000000       0.00000000 UNL  C         1
H       -2.53200000      -0.68100000      -0.04200000       1.00000000       0.00000000 UNL  H         1
C        0.75500000       1.37800000       0.03200000       1.00000000       0.00000000 UNL  C         1
C        0.79900000      -0.02000000       0.05700000       1.00000000       0.00000000 UNL  C         1
H       -0.34600000      -1.84200000       0.05000000       1.00000000       0.00000000 UNL  H         1
H        1.75400000      -0.52900000       0.09800000       1.00000000       0.00000000 UNL  H         1
H        1.69300000       1.91500000       0.05400000       1.00000000       0.00000000 UNL  H         1
C       -0.61500000       3.56300000      -0.05000000       1.00000000       0.00000000 UNL  C         1
C        0.70300000       4.33900000      -0.02000000       1.00000000       0.00000000 UNL  C         1
H       -1.22000000       3.88100000       0.82600000       1.00000000       0.00000000 UNL  H         1
H       -1.16000000       3.85000000      -0.97500000       1.00000000       0.00000000 UNL  H         1
H        1.26400000       4.11500000       0.91300000       1.00000000       0.00000000 UNL  H         1
H        0.49100000       5.42800000      -0.04500000       1.00000000       0.00000000 UNL  H         1
H        1.32400000       4.08400000      -0.90400000       1.00000000       0.00000000 UNL  H         1
