3
Properties=species:S:1:pos:R:3:occupancy:R:1:bfactor:R:1:residuenames:S:1:atomtypes:S:1:residuenumbers:I:1 pbc="F F F"
O       -0.06100000       0.69800000       0.01100000       1.00000000       0.00000000 HOH  O         1
H        0.92800000       0.66000000      -0.00800000       1.00000000       0.00000000 HOH  H         0
H       -0.35100000      -0.15500000      -0.40000000       1.00000000       0.00000000 HOH  H         0
