21
Properties=species:S:1:pos:R:3:occupancy:R:1:bfactor:R:1:residuenames:S:1:atomtypes:S:1:residuenumbers:I:1 pbc="F F F"
C       -1.66700000       1.26200000      -0.02700000       1.00000000       0.00000000 UNL  C         1
C       -1.61900000      -0.14100000      -0.01500000       1.00000000       0.00000000 UNL  C         1
C       -0.48100000       2.01300000      -0.01800000       1.00000000       0.00000000 UNL  C         1
H       -2.62400000       1.76900000      -0.04400000       1.00000000       0.00000000 UNL  H         1
C       -0.37700000      -0.79100000       0.00700000       1.00000000       0.00000000 UNL  C         1
C        0.75600000       1.35200000       0.00400000       1.00000000       0.00000000 UNL  C         1
C        0.81400000      -0.04900000       0.01700000       1.00000000       0.00000000 UNL  C         1
C       -0.52000000       3.51300000      -0.03100000       1.00000000       0.00000000 UNL  C         1
H       -1.56300000       3.89500000      -0.04800000       1.00000000       0.00000000 UNL  H         1
H        0.00700000       3.89200000      -0.93200000       1.00000000       0.00000000 UNL  H         1
H       -0.01700000       3.90700000       0.87700000       1.00000000       0.00000000 UNL  H         1
H       -0.34100000      -1.87400000       0.01700000       1.00000000       0.00000000 UNL  H         1
H        1.67400000       1.92800000       0.01100000       1.00000000       0.00000000 UNL  H         1
C        2.14700000      -0.73700000       0.04000000       1.00000000       0.00000000 UNL  C         1
H        2.03800000      -1.84200000       0.04800000       1.00000000       0.00000000 UNL  H         1
H        2.70700000      -0.43300000       0.95000000       1.00000000       0.00000000 UNL  H         1
H        2.73100000      -0.44900000      -0.85900000       1.00000000       0.00000000 UNL  H         1
C       -2.88200000      -0.95200000      -0.02500000       1.00000000       0.00000000 UNL  C         1
H       -3.78400000      -0.30500000      -0.04200000       1.00000000       0.00000000 UNL  H         1
H       -2.92400000      -1.58700000       0.88500000       1.00000000       0.00000000 UNL  H         1
H       -2.90000000      -1.60300000      -0.92400000       1.00000000       0.00000000 UNL  H         1
