18
Properties=species:S:1:pos:R:3:occupancy:R:1:bfactor:R:1:residuenames:S:1:atomtypes:S:1:residuenumbers:I:1 pbc="F F F"
C       -1.65800000       1.29600000      -0.03800000       1.00000000       0.00000000 UNL  C         1
C       -1.58700000      -0.09800000      -0.02500000       1.00000000       0.00000000 UNL  C         1
C       -0.48700000       2.07500000      -0.01400000       1.00000000       0.00000000 UNL  C         1
H       -2.63300000       1.76700000      -0.06700000       1.00000000       0.00000000 UNL  H         1
C       -0.34700000      -0.73400000       0.01200000       1.00000000       0.00000000 UNL  C         1
H       -2.49500000      -0.68600000      -0.04400000       1.00000000       0.00000000 UNL  H         1
C        0.77500000       1.42600000       0.02400000       1.00000000       0.00000000 UNL  C         1
C        0.82600000       0.02200000       0.03600000       1.00000000       0.00000000 UNL  C         1
H        1.78000000      -0.49100000       0.06500000       1.00000000       0.00000000 UNL  H         1
C       -0.61000000       3.57600000      -0.02900000       1.00000000       0.00000000 UNL  C         1
H       -1.67200000       3.90300000      -0.05900000       1.00000000       0.00000000 UNL  H         1
H       -0.10300000       3.98600000      -0.92700000       1.00000000       0.00000000 UNL  H         1
H       -0.15000000       4.00100000       0.88700000       1.00000000       0.00000000 UNL  H         1
C        2.08500000       2.17300000       0.05200000       1.00000000       0.00000000 UNL  C         1
H        1.96500000       3.27400000       0.04000000       1.00000000       0.00000000 UNL  H         1
H        2.69100000       1.88900000      -0.83400000       1.00000000       0.00000000 UNL  H         1
H        2.64400000       1.90300000       0.97200000       1.00000000       0.00000000 UNL  H         1
H       -0.29500000      -1.81500000       0.02200000       1.00000000       0.00000000 UNL  H         1
