136
Properties=species:S:1:pos:R:3 "%%%'L':{'index':0,'type':'FG',R:'index':1,'type':'FG'}%%%"=T pbc="F F F"
C       -0.57156000       2.27866000       0.00000000
C        1.75306000      -0.31123000       0.00000000
C        1.65940000       2.30251000      -0.00000000
C        1.28845000       0.98865000       0.00000000
C       -0.10622000       0.97951000       0.00000000
C       -0.47792000      -0.33381000      -0.00000000
N        0.53085000       3.08576000      -0.00000000
N        0.65003000      -1.11769000      -0.00000000
O        2.68272000       2.98868000      -0.00000000
O       -1.52533000      -0.99533000      -0.00000000
C        0.50321000       4.54391000      -0.00000000
H       -0.54438000       4.91456000      -0.00000000
H        1.01847000       4.92769000      -0.90547000
H        1.01847000       4.92769000       0.90547000
C        0.67502000      -2.57587000      -0.00000000
H        1.72166000      -2.94887000      -0.00000000
H        0.15853000      -2.95844000      -0.90536000
H        0.15853000      -2.95845000       0.90536000
C       -4.51330000       2.25054000      -0.49118353
C       -2.02156000       2.27866000       0.00000000
C       -3.95952538       3.51703172      -0.39777905
C       -2.59330204       3.53279410      -0.11184136
S       -3.25948860       1.15084498      -0.23745321
O       -1.94287288       4.71462720       0.03091053
O       -4.62669838       4.68309628      -0.55769650
C       -3.90544676       5.85655044      -0.74313992
C       -2.68082362       5.88512151       0.19920726
H       -2.04035462       6.77226243       0.02443788
H       -3.05444163       5.93411568       1.24598863
H       -4.55855046       6.74155320      -0.58132910
H       -3.53225424       5.86676534      -1.79035252
C        3.20306000      -0.31123000       0.00000000
C        5.69480000      -0.28311000       0.49157000
C        3.77591000      -1.56543000       0.12367000
C        5.14845000      -1.55000000       0.37782000
S        4.43722000       0.81679000       0.24141000
O        5.82775000      -2.71672000       0.49254000
O        3.12129000      -2.74704000       0.01818000
C        3.74134000      -3.91111000       0.46344000
C        5.23235000      -3.89703000       0.05651000
H        5.77604000      -4.77607000       0.46126000
H        5.28513000      -3.93046000      -1.05384000
H        3.21628000      -4.80454000       0.06566000
H        3.68918000      -3.93690000       1.57402000
C        7.14480000      -0.28311000       0.49157000
C       14.43976000       0.03330000      -1.19447000
C        7.16041000       0.80029000      -0.36395000
C        8.35691000       1.21941000      -0.93260000
H        6.24084000       1.33128000      -0.57244000
C        8.32228000      -0.95749000       0.78159000
C        9.58201000       0.54681000      -0.67811000
H        8.28592000       2.09289000      -1.55197000
C        9.56466000      -0.57582000       0.20609000
H        8.21935000      -1.75879000       1.48945000
C       10.80964000       1.00444000      -1.24100000
C       10.77499000      -1.25408000       0.53849000
C       12.01994000       0.32609000      -0.90873000
C       12.00260000      -0.79656000      -0.02458000
C       13.26229000       0.70776000      -1.48430000
C       13.22770000      -1.46924000       0.22971000
H       13.36517000       1.50913000      -2.19212000
C       14.42416000      -1.05017000      -0.33906000
H       13.29873000      -2.34280000       0.84897000
H       15.34372000      -1.58126000      -0.13073000
C       10.83330000       2.18410000      -2.17406000
S        9.85915000       2.39638000      -3.54276000
C       10.50331000       3.87834000      -4.00094000
C       11.49220000       4.23672000      -3.09781000
C       11.67882000       3.29324000      -2.08123000
H       12.06323000       5.15323000      -3.16863000
H       12.40811000       3.42678000      -1.29262000
C       10.75159000      -2.43338000       1.47206000
S       11.72629000      -2.64489000       2.84039000
C       11.08335000      -4.12592000       3.30028000
C       10.09334000      -4.48542000       2.39757000
C        9.90611000      -3.54257000       1.38045000
H        9.17640000      -3.67668000       0.59233000
H        9.52160000      -5.40151000       2.46796000
C       10.07915000       4.67794000      -5.18666000
H        9.26806000       4.15459000      -5.73491000
H       10.94310000       4.81937000      -5.86895000
H        9.70819000       5.66967000      -4.85378000
C       11.51840000      -4.91442000       4.48984000
H       10.93553000      -5.85619000       4.57039000
H       11.36165000      -4.31384000       5.40977000
H       12.59548000      -5.16427000       4.39471000
C       15.88976000       0.03330000      -1.19447000
C       23.18472000       0.34971000      -2.88051000
C       15.90537000       1.11670000      -2.04999000
C       17.10187000       1.53582000      -2.61864000
H       14.98580000       1.64769000      -2.25848000
C       17.06724000      -0.64108000      -0.90445000
C       18.32697000       0.86322000      -2.36415000
H       17.03088000       2.40930000      -3.23801000
C       18.30962000      -0.25941000      -1.47995000
H       16.96431000      -1.44238000      -0.19659000
C       19.55460000       1.32085000      -2.92704000
C       19.51995000      -0.93767000      -1.14755000
C       20.76490000       0.64250000      -2.59477000
C       20.74756000      -0.48015000      -1.71062000
C       22.00725000       1.02417000      -3.17034000
C       21.97266000      -1.15283000      -1.45633000
H       22.11013000       1.82554000      -3.87816000
C       23.16912000      -0.73376000      -2.02510000
H       22.04369000      -2.02639000      -0.83707000
H       24.08868000      -1.26485000      -1.81677000
C       19.57826000       2.50051000      -3.86010000
S       18.60411000       2.71279000      -5.22880000
C       19.24827000       4.19475000      -5.68698000
C       20.23716000       4.55313000      -4.78385000
C       20.42378000       3.60965000      -3.76727000
H       20.80819000       5.46964000      -4.85467000
H       21.15307000       3.74319000      -2.97866000
C       19.49655000      -2.11697000      -0.21398000
S       20.47125000      -2.32848000       1.15435000
C       19.82831000      -3.80951000       1.61424000
C       18.83830000      -4.16901000       0.71153000
C       18.65107000      -3.22616000      -0.30559000
H       17.92136000      -3.36027000      -1.09371000
H       18.26656000      -5.08510000       0.78192000
C       18.82411000       4.99435000      -6.87270000
H       18.01302000       4.47100000      -7.42095000
H       19.68806000       5.13578000      -7.55499000
H       18.45315000       5.98608000      -6.53982000
C       20.26336000      -4.59801000       2.80380000
H       19.68049000      -5.53978000       2.88435000
H       20.10661000      -3.99743000       3.72373000
H       21.34044000      -4.84786000       2.70867000
C       -5.96330000       2.25054000      -0.49118353
H       -6.26330000       3.25054000      -0.48118353
H       -6.26330000       1.65054000       0.30881647
H       -6.26330000       1.85054000      -1.39118353
C       24.63472000       0.34971000      -2.88051000
H       24.93472000      -0.65029000      -2.89051000
H       24.93472000       0.94971000      -3.68051000
H       24.93472000       0.74971000      -1.98051000
